@<TRIPOS>MOLECULE
TS_4MU_phenylacetate_ZnHis3_OAc_ZnO_ENANTIOMER_TS_0.xyz -124.326193369883
 39 42 0 0 0
SMALL
GASTEIGER

@<TRIPOS>ATOM
      1 ZN         -0.4334   -0.0190    0.6302 Zn      1  UNL1        0.0000
      2 O          -1.2449    0.1968   -1.1846 O.3     2  UNL2        0.0000
      3 C          -1.0287   -1.4855   -1.6850 C.3     2  UNL2        0.0000
      4 O          -0.7740   -2.0635   -0.6051 O.3     2  UNL2        0.0000
      5 O           0.0264   -1.3242   -2.6580 O.3     2  UNL2        0.0000
      6 H          -0.7513    0.8017   -1.7802 H       2  UNL2        0.0000
      7 C           1.3036   -1.2891   -2.1490 C.ar    2  UNL2        0.0000
      8 C           1.8925   -0.0573   -1.8800 C.ar    2  UNL2        0.0000
      9 C           2.0000   -2.4829   -1.9129 C.ar    2  UNL2        0.0000
     10 C           3.1521   -0.0335   -1.2886 C.ar    2  UNL2        0.0000
     11 C           3.2698   -2.4374   -1.3623 C.ar    2  UNL2        0.0000
     12 C           3.8693   -1.2108   -1.0131 C.ar    2  UNL2        0.0000
     13 H           1.3751    0.8729   -2.0825 H       2  UNL2        0.0000
     14 H           1.5212   -3.4271   -2.1434 H       2  UNL2        0.0000
     15 H           3.7986   -3.3626   -1.1646 H       2  UNL2        0.0000
     16 C          -2.3011   -1.7444   -2.4908 C.3     2  UNL2        0.0000
     17 H          -2.3120   -1.0701   -3.3504 H       2  UNL2        0.0000
     18 H          -2.2033   -2.7666   -2.8776 H       2  UNL2        0.0000
     19 O           3.6418    1.2000   -0.9544 O.2     2  UNL2        0.0000
     20 C           4.8575    1.3596   -0.2985 C.ar    2  UNL2        0.0000
     21 O           5.1809    2.4963   -0.0091 O.2     2  UNL2        0.0000
     22 C           5.6066    0.1518   -0.0273 C.ar    2  UNL2        0.0000
     23 H           6.5571    0.2943    0.4736 H       2  UNL2        0.0000
     24 C           5.1576   -1.0888   -0.3592 C.ar    2  UNL2        0.0000
     25 C           5.9582   -2.3180   -0.0422 C.3     2  UNL2        0.0000
     26 H           6.1822   -2.8835   -0.9540 H       2  UNL2        0.0000
     27 H           6.8995   -2.0583    0.4466 H       2  UNL2        0.0000
     28 H           5.3947   -2.9850    0.6203 H       2  UNL2        0.0000
     29 C          -3.5696   -1.6094   -1.6878 C.ar    2  UNL2        0.0000
     30 C          -4.3550   -0.4532   -1.7836 C.ar    2  UNL2        0.0000
     31 C          -3.9914   -2.6369   -0.8345 C.ar    2  UNL2        0.0000
     32 C          -5.5350   -0.3256   -1.0474 C.ar    2  UNL2        0.0000
     33 C          -5.1690   -2.5136   -0.0953 C.ar    2  UNL2        0.0000
     34 C          -5.9468   -1.3582   -0.2008 C.ar    2  UNL2        0.0000
     35 H          -4.0402    0.3514   -2.4423 H       2  UNL2        0.0000
     36 H          -3.3899   -3.5373   -0.7504 H       2  UNL2        0.0000
     37 H          -6.1319    0.5776   -1.1372 H       2  UNL2        0.0000
     38 H          -5.4795   -3.3201    0.5629 H       2  UNL2        0.0000
     39 H          -6.8647   -1.2625    0.3720 H       2  UNL2        0.0000
@<TRIPOS>BOND
     1    17    16    1
     2    18    16    1
     3     5     7    1
     4     5     3    1
     5    16    29    1
     6    16     3    1
     7    35    30    1
     8     7     9   ar
     9     7     8   ar
    10    14     9    1
    11    13     8    1
    12     9    11   ar
    13     8    10   ar
    14    30    29   ar
    15    30    32   ar
    16     6     2    1
    17    29    31   ar
    18     3     2    1
    19     3     4    1
    20    11    15    1
    21    11    12   ar
    22    10    12   ar
    23    10    19   ar
    24    37    32    1
    25    32    34   ar
    26    12    24   ar
    27    19    20   ar
    28    26    25    1
    29    31    36    1
    30    31    33   ar
    31    24    25    1
    32    24    22   ar
    33    20    22   ar
    34    20    21    2
    35    34    33   ar
    36    34    39    1
    37    33    38    1
    38    25    27    1
    39    25    28    1
    40    22    23    1
    41     1     2    1
    42     1     4    1 
@<TRIPOS>MOLECULE
TS_4MU_phenylacetate_ZnHis3_OAc_ZnO_ENANTIOMER_TS_1021.xyz -124.32384725372
 39 42 0 0 0
SMALL
GASTEIGER

@<TRIPOS>ATOM
      1 ZN          0.0000    0.0000    0.0000 Zn      1  UNL1        0.0000
      2 O           1.9997    0.0000    0.0000 O.3     2  UNL2        0.0000
      3 C           2.1846    0.0000    1.7587 C.3     2  UNL2        0.0000
      4 O           1.0388   -0.3072    2.1561 O.3     2  UNL2        0.0000
      5 O           2.6568    1.3498    1.9615 O.3     2  UNL2        0.0000
      6 H           2.4052    0.8043   -0.3911 H       2  UNL2        0.0000
      7 C           1.7092    2.3373    1.8264 C.ar    2  UNL2        0.0000
      8 C           0.9389    2.6930    2.9293 C.ar    2  UNL2        0.0000
      9 C           1.5225    2.9686    0.5885 C.ar    2  UNL2        0.0000
     10 C           0.0408    3.7488    2.8050 C.ar    2  UNL2        0.0000
     11 C           0.5940    3.9896    0.4738 C.ar    2  UNL2        0.0000
     12 C          -0.1544    4.4227    1.5868 C.ar    2  UNL2        0.0000
     13 H           1.0552    2.1948    3.8844 H       2  UNL2        0.0000
     14 H           2.1282    2.6625   -0.2562 H       2  UNL2        0.0000
     15 H           0.4644    4.4878   -0.4800 H       2  UNL2        0.0000
     16 C           3.4043   -0.9003    1.9510 C.3     2  UNL2        0.0000
     17 H           4.2722   -0.4112    1.5025 H       2  UNL2        0.0000
     18 H           3.5746   -0.9404    3.0342 H       2  UNL2        0.0000
     19 O          -0.6180    4.1218    3.9450 O.2     2  UNL2        0.0000
     20 C          -1.4921    5.2030    3.9732 C.ar    2  UNL2        0.0000
     21 O          -1.9934    5.4768    5.0476 O.2     2  UNL2        0.0000
     22 C          -1.7083    5.8895    2.7180 C.ar    2  UNL2        0.0000
     23 H          -2.4012    6.7221    2.7543 H       2  UNL2        0.0000
     24 C          -1.0825    5.5363    1.5628 C.ar    2  UNL2        0.0000
     25 C          -1.3209    6.2878    0.2858 C.3     2  UNL2        0.0000
     26 H          -1.6979    5.6187   -0.4961 H       2  UNL2        0.0000
     27 H          -2.0434    7.0932    0.4331 H       2  UNL2        0.0000
     28 H          -0.3861    6.7230   -0.0858 H       2  UNL2        0.0000
     29 C           3.2286   -2.2918    1.3986 C.ar    2  UNL2        0.0000
     30 C           2.3373   -3.1904    1.9992 C.ar    2  UNL2        0.0000
     31 C           3.9476   -2.7130    0.2729 C.ar    2  UNL2        0.0000
     32 C           2.1652   -4.4786    1.4875 C.ar    2  UNL2        0.0000
     33 C           3.7804   -4.0000   -0.2413 C.ar    2  UNL2        0.0000
     34 C           2.8865   -4.8871    0.3628 C.ar    2  UNL2        0.0000
     35 H           1.7724   -2.8769    2.8726 H       2  UNL2        0.0000
     36 H           4.6430   -2.0259   -0.2002 H       2  UNL2        0.0000
     37 H           1.4672   -5.1602    1.9655 H       2  UNL2        0.0000
     38 H           4.3480   -4.3098   -1.1142 H       2  UNL2        0.0000
     39 H           2.7538   -5.8878   -0.0382 H       2  UNL2        0.0000
@<TRIPOS>BOND
     1    38    33    1
     2    26    25    1
     3    15    11    1
     4     6     2    1
     5    14     9    1
     6    33    31   ar
     7    33    34   ar
     8    36    31    1
     9    28    25    1
    10    39    34    1
    11     2     3    1
    12    31    29   ar
    13    25    27    1
    14    25    24    1
    15    34    32   ar
    16    11     9   ar
    17    11    12   ar
    18     9     7   ar
    19    29    16    1
    20    29    30   ar
    21    32    37    1
    22    32    30   ar
    23    17    16    1
    24    24    12   ar
    25    24    22   ar
    26    12    10   ar
    27     3    16    1
    28     3     5    1
    29     3     4    1
    30     7     5    1
    31     7     8   ar
    32    16    18    1
    33    30    35    1
    34    22    23    1
    35    22    20   ar
    36    10     8   ar
    37    10    19   ar
    38     8    13    1
    39    19    20   ar
    40    20    21    2
    41     1     2    1
    42     1     4    1 
@<TRIPOS>MOLECULE
TS_4MU_phenylacetate_ZnHis3_OAc_ZnO_ENANTIOMER_TS_2529.xyz -124.322251453337
 39 42 0 0 0
SMALL
GASTEIGER

@<TRIPOS>ATOM
      1 ZN          0.0000    0.0000    0.0000 Zn      1  UNL1        0.0000
      2 O           1.9997    0.0000    0.0000 O.3     2  UNL2        0.0000
      3 C           2.1846    0.0000    1.7587 C.3     2  UNL2        0.0000
      4 O           1.0388   -0.3072    2.1561 O.3     2  UNL2        0.0000
      5 O           2.6568    1.3498    1.9615 O.3     2  UNL2        0.0000
      6 H           2.4052    0.8043   -0.3911 H       2  UNL2        0.0000
      7 C           1.6796    2.3124    2.0610 C.ar    2  UNL2        0.0000
      8 C           1.2691    2.9827    0.9128 C.ar    2  UNL2        0.0000
      9 C           1.1133    2.6139    3.3077 C.ar    2  UNL2        0.0000
     10 C           0.2230    3.8955    1.0094 C.ar    2  UNL2        0.0000
     11 C           0.1016    3.5558    3.3903 C.ar    2  UNL2        0.0000
     12 C          -0.3867    4.2040    2.2380 C.ar    2  UNL2        0.0000
     13 H           1.7171    2.7776   -0.0522 H       2  UNL2        0.0000
     14 H           1.4613    2.0846    4.1868 H       2  UNL2        0.0000
     15 H          -0.3464    3.7741    4.3528 H       2  UNL2        0.0000
     16 C           3.4043   -0.9003    1.9510 C.3     2  UNL2        0.0000
     17 H           4.2056   -0.5449    1.2990 H       2  UNL2        0.0000
     18 H           3.7297   -0.7404    2.9866 H       2  UNL2        0.0000
     19 O          -0.2069    4.4516   -0.1647 O.2     2  UNL2        0.0000
     20 C          -1.2862    5.3269   -0.2162 C.ar    2  UNL2        0.0000
     21 O          -1.6141    5.7313   -1.3160 O.2     2  UNL2        0.0000
     22 C          -1.9067    5.6597    1.0478 C.ar    2  UNL2        0.0000
     23 H          -2.7386    6.3522    0.9918 H       2  UNL2        0.0000
     24 C          -1.4956    5.1380    2.2351 C.ar    2  UNL2        0.0000
     25 C          -2.1798    5.4953    3.5222 C.3     2  UNL2        0.0000
     26 H          -1.4704    5.9366    4.2316 H       2  UNL2        0.0000
     27 H          -2.9901    6.2072    3.3518 H       2  UNL2        0.0000
     28 H          -2.5972    4.6008    3.9984 H       2  UNL2        0.0000
     29 C           3.1272   -2.3624    1.7111 C.ar    2  UNL2        0.0000
     30 C           1.9228   -2.9392    2.1349 C.ar    2  UNL2        0.0000
     31 C           4.0639   -3.1723    1.0565 C.ar    2  UNL2        0.0000
     32 C           1.6576   -4.2917    1.9090 C.ar    2  UNL2        0.0000
     33 C           3.8043   -4.5250    0.8299 C.ar    2  UNL2        0.0000
     34 C           2.5988   -5.0895    1.2532 C.ar    2  UNL2        0.0000
     35 H           1.1868   -2.3226    2.6432 H       2  UNL2        0.0000
     36 H           5.0020   -2.7369    0.7250 H       2  UNL2        0.0000
     37 H           0.7167   -4.7202    2.2426 H       2  UNL2        0.0000
     38 H           4.5434   -5.1382    0.3221 H       2  UNL2        0.0000
     39 H           2.3949   -6.1414    1.0749 H       2  UNL2        0.0000
@<TRIPOS>BOND
     1    21    20    2
     2     6     2    1
     3    20    19   ar
     4    20    22   ar
     5    19    10   ar
     6    13     8    1
     7     2     3    1
     8    38    33    1
     9    36    31    1
    10    33    31   ar
    11    33    34   ar
    12     8    10   ar
    13     8     7   ar
    14    23    22    1
    15    10    12   ar
    16    22    24   ar
    17    31    29   ar
    18    39    34    1
    19    34    32   ar
    20    17    16    1
    21    29    16    1
    22    29    30   ar
    23     3    16    1
    24     3     5    1
    25     3     4    1
    26    32    30   ar
    27    32    37    1
    28    16    18    1
    29     5     7    1
    30     7     9   ar
    31    30    35    1
    32    24    12   ar
    33    24    25    1
    34    12    11   ar
    35     9    11   ar
    36     9    14    1
    37    27    25    1
    38    11    15    1
    39    25    28    1
    40    25    26    1
    41     1     2    1
    42     1     4    1 
@<TRIPOS>MOLECULE
TS_4MU_phenylacetate_ZnHis3_OAc_ZnO_ENANTIOMER_TS_68.xyz -124.322208028414
 39 42 0 0 0
SMALL
GASTEIGER

@<TRIPOS>ATOM
      1 ZN          0.0000    0.0000    0.0000 Zn      1  UNL1        0.0000
      2 O           1.9997    0.0000    0.0000 O.3     2  UNL2        0.0000
      3 C           2.1846    0.0000    1.7587 C.3     2  UNL2        0.0000
      4 O           1.0388   -0.3072    2.1561 O.3     2  UNL2        0.0000
      5 O           2.6568    1.3498    1.9615 O.3     2  UNL2        0.0000
      6 H           2.4052    0.8043   -0.3911 H       2  UNL2        0.0000
      7 C           1.6935    2.3300    1.9112 C.ar    2  UNL2        0.0000
      8 C           0.7977    2.4549    2.9687 C.ar    2  UNL2        0.0000
      9 C           1.6167    3.1848    0.8024 C.ar    2  UNL2        0.0000
     10 C          -0.1201    3.5009    2.9475 C.ar    2  UNL2        0.0000
     11 C           0.6690    4.1943    0.7805 C.ar    2  UNL2        0.0000
     12 C          -0.2090    4.3934    1.8650 C.ar    2  UNL2        0.0000
     13 H           0.8299    1.7842    3.8190 H       2  UNL2        0.0000
     14 H           2.3195    3.0563   -0.0121 H       2  UNL2        0.0000
     15 H           0.6234    4.8645   -0.0699 H       2  UNL2        0.0000
     16 C           3.4043   -0.9003    1.9510 C.3     2  UNL2        0.0000
     17 H           3.1368   -1.9171    1.6543 H       2  UNL2        0.0000
     18 H           4.1550   -0.5378    1.2376 H       2  UNL2        0.0000
     19 O          -0.9096    3.6374    4.0568 O.2     2  UNL2        0.0000
     20 C          -1.8207    4.6793    4.1918 C.ar    2  UNL2        0.0000
     21 O          -2.4432    4.7335    5.2359 O.2     2  UNL2        0.0000
     22 C          -1.9270    5.5910    3.0733 C.ar    2  UNL2        0.0000
     23 H          -2.6498    6.3902    3.1893 H       2  UNL2        0.0000
     24 C          -1.1693    5.4763    1.9492 C.ar    2  UNL2        0.0000
     25 C          -1.2978    6.4557    0.8193 C.3     2  UNL2        0.0000
     26 H          -1.5647    5.9438   -0.1123 H       2  UNL2        0.0000
     27 H          -2.0609    7.2064    1.0351 H       2  UNL2        0.0000
     28 H          -0.3453    6.9687    0.6435 H       2  UNL2        0.0000
     29 C           3.9626   -0.8802    3.3511 C.ar    2  UNL2        0.0000
     30 C           3.5334   -1.8136    4.3037 C.ar    2  UNL2        0.0000
     31 C           4.9236    0.0668    3.7269 C.ar    2  UNL2        0.0000
     32 C           4.0523   -1.8042    5.6004 C.ar    2  UNL2        0.0000
     33 C           5.4441    0.0814    5.0221 C.ar    2  UNL2        0.0000
     34 C           5.0121   -0.8559    5.9633 C.ar    2  UNL2        0.0000
     35 H           2.7890   -2.5545    4.0258 H       2  UNL2        0.0000
     36 H           5.2628    0.7966    2.9977 H       2  UNL2        0.0000
     37 H           3.7090   -2.5379    6.3243 H       2  UNL2        0.0000
     38 H           6.1875    0.8245    5.2961 H       2  UNL2        0.0000
     39 H           5.4185   -0.8469    6.9706 H       2  UNL2        0.0000
@<TRIPOS>BOND
     1     6     2    1
     2    26    25    1
     3    15    11    1
     4    14     9    1
     5     2     3    1
     6    28    25    1
     7    11     9   ar
     8    11    12   ar
     9     9     7   ar
    10    25    27    1
    11    25    24    1
    12    18    16    1
    13    17    16    1
    14     3    16    1
    15     3     5    1
    16     3     4    1
    17    12    24   ar
    18    12    10   ar
    19     7     5    1
    20     7     8   ar
    21    24    22   ar
    22    16    29    1
    23    10     8   ar
    24    10    19   ar
    25     8    13    1
    26    36    31    1
    27    22    23    1
    28    22    20   ar
    29    29    31   ar
    30    29    30   ar
    31    31    33   ar
    32    35    30    1
    33    19    20   ar
    34    20    21    2
    35    30    32   ar
    36    33    38    1
    37    33    34   ar
    38    32    34   ar
    39    32    37    1
    40    34    39    1
    41     1     2    1
    42     1     4    1 
@<TRIPOS>MOLECULE
TS_4MU_phenylacetate_ZnHis3_OAc_ZnO_ENANTIOMER_TS_3923.xyz -124.321628606153
 39 42 0 0 0
SMALL
GASTEIGER

@<TRIPOS>ATOM
      1 ZN          0.0000    0.0000    0.0000 Zn      1  UNL1        0.0000
      2 O           1.9997    0.0000    0.0000 O.3     2  UNL2        0.0000
      3 C           2.1846    0.0000    1.7587 C.3     2  UNL2        0.0000
      4 O           1.0388   -0.3072    2.1561 O.3     2  UNL2        0.0000
      5 O           2.6568    1.3498    1.9615 O.3     2  UNL2        0.0000
      6 H           2.4052    0.8043   -0.3911 H       2  UNL2        0.0000
      7 C           1.7185    2.2449    2.4193 C.ar    2  UNL2        0.0000
      8 C           1.1253    3.1248    1.5192 C.ar    2  UNL2        0.0000
      9 C           1.3737    2.2695    3.7781 C.ar    2  UNL2        0.0000
     10 C           0.1181    3.9699    1.9755 C.ar    2  UNL2        0.0000
     11 C           0.3982    3.1470    4.2212 C.ar    2  UNL2        0.0000
     12 C          -0.2725    4.0039    3.3255 C.ar    2  UNL2        0.0000
     13 H           1.4019    3.1336    0.4716 H       2  UNL2        0.0000
     14 H           1.8610    1.5811    4.4583 H       2  UNL2        0.0000
     15 H           0.1213    3.1515    5.2690 H       2  UNL2        0.0000
     16 C           3.4043   -0.9003    1.9510 C.3     2  UNL2        0.0000
     17 H           4.1673   -0.6129    1.2238 H       2  UNL2        0.0000
     18 H           3.7951   -0.6601    2.9478 H       2  UNL2        0.0000
     19 O          -0.4996    4.7428    1.0301 O.2     2  UNL2        0.0000
     20 C          -1.5649    5.5807    1.3414 C.ar    2  UNL2        0.0000
     21 O          -2.0706    6.1927    0.4193 O.2     2  UNL2        0.0000
     22 C          -1.9598    5.6309    2.7324 C.ar    2  UNL2        0.0000
     23 H          -2.7835    6.2975    2.9603 H       2  UNL2        0.0000
     24 C          -1.3582    4.8885    3.7008 C.ar    2  UNL2        0.0000
     25 C          -1.8119    4.9563    5.1298 C.3     2  UNL2        0.0000
     26 H          -0.9892    5.2620    5.7862 H       2  UNL2        0.0000
     27 H          -2.6336    5.6658    5.2477 H       2  UNL2        0.0000
     28 H          -2.1501    3.9722    5.4741 H       2  UNL2        0.0000
     29 C           3.0974   -2.3728    1.8519 C.ar    2  UNL2        0.0000
     30 C           3.5137   -3.1149    0.7389 C.ar    2  UNL2        0.0000
     31 C           2.3953   -3.0296    2.8703 C.ar    2  UNL2        0.0000
     32 C           3.2383   -4.4809    0.6449 C.ar    2  UNL2        0.0000
     33 C           2.1161   -4.3943    2.7804 C.ar    2  UNL2        0.0000
     34 C           2.5387   -5.1259    1.6681 C.ar    2  UNL2        0.0000
     35 H           4.0599   -2.6185   -0.0583 H       2  UNL2        0.0000
     36 H           2.0658   -2.4644    3.7373 H       2  UNL2        0.0000
     37 H           3.5718   -5.0400   -0.2249 H       2  UNL2        0.0000
     38 H           1.5688   -4.8866    3.5793 H       2  UNL2        0.0000
     39 H           2.3242   -6.1884    1.5984 H       2  UNL2        0.0000
@<TRIPOS>BOND
     1     6     2    1
     2    37    32    1
     3    35    30    1
     4     2     3    1
     5    21    20    2
     6    13     8    1
     7    32    30   ar
     8    32    34   ar
     9    30    29   ar
    10    19    20   ar
    11    19    10   ar
    12    17    16    1
    13    20    22   ar
    14     8    10   ar
    15     8     7   ar
    16    39    34    1
    17    34    33   ar
    18     3    16    1
    19     3     5    1
    20     3     4    1
    21    29    16    1
    22    29    31   ar
    23    16    18    1
    24     5     7    1
    25    10    12   ar
    26     7     9   ar
    27    22    23    1
    28    22    24   ar
    29    33    31   ar
    30    33    38    1
    31    31    36    1
    32    12    24   ar
    33    12    11   ar
    34    24    25    1
    35     9    11   ar
    36     9    14    1
    37    11    15    1
    38    25    27    1
    39    25    28    1
    40    25    26    1
    41     1     2    1
    42     1     4    1 
@<TRIPOS>MOLECULE
TS_4MU_phenylacetate_ZnHis3_OAc_ZnO_ENANTIOMER_TS_1972.xyz -124.32157507746
 39 42 0 0 0
SMALL
GASTEIGER

@<TRIPOS>ATOM
      1 ZN          0.0000    0.0000    0.0000 Zn      1  UNL1        0.0000
      2 O           1.9997    0.0000    0.0000 O.3     2  UNL2        0.0000
      3 C           2.1846    0.0000    1.7587 C.3     2  UNL2        0.0000
      4 O           1.0388   -0.3072    2.1561 O.3     2  UNL2        0.0000
      5 O           2.6568    1.3498    1.9615 O.3     2  UNL2        0.0000
      6 H           2.4052    0.8043   -0.3911 H       2  UNL2        0.0000
      7 C           1.7358    2.2297    2.4800 C.ar    2  UNL2        0.0000
      8 C           1.3617    2.1109    3.8150 C.ar    2  UNL2        0.0000
      9 C           1.1801    3.2272    1.6663 C.ar    2  UNL2        0.0000
     10 C           0.4926    3.0557    4.3524 C.ar    2  UNL2        0.0000
     11 C           0.2845    4.1333    2.2090 C.ar    2  UNL2        0.0000
     12 C          -0.0641    4.0853    3.5738 C.ar    2  UNL2        0.0000
     13 H           1.7640    1.3284    4.4473 H       2  UNL2        0.0000
     14 H           1.4808    3.2882    0.6272 H       2  UNL2        0.0000
     15 H          -0.1300    4.9141    1.5819 H       2  UNL2        0.0000
     16 C           3.4043   -0.9003    1.9510 C.3     2  UNL2        0.0000
     17 H           4.2280   -0.5029    1.3534 H       2  UNL2        0.0000
     18 H           3.6855   -0.7960    3.0065 H       2  UNL2        0.0000
     19 O           0.2363    2.9508    5.6926 O.2     2  UNL2        0.0000
     20 C          -0.5614    3.8691    6.3665 C.ar    2  UNL2        0.0000
     21 O          -0.6911    3.7089    7.5657 O.2     2  UNL2        0.0000
     22 C          -1.1494    4.9213    5.5661 C.ar    2  UNL2        0.0000
     23 H          -1.7777    5.6217    6.1040 H       2  UNL2        0.0000
     24 C          -0.9287    5.0468    4.2295 C.ar    2  UNL2        0.0000
     25 C          -1.5434    6.1651    3.4396 C.3     2  UNL2        0.0000
     26 H          -2.1622    5.7729    2.6246 H       2  UNL2        0.0000
     27 H          -2.1653    6.7991    4.0750 H       2  UNL2        0.0000
     28 H          -0.7654    6.7874    2.9826 H       2  UNL2        0.0000
     29 C           3.1518   -2.3488    1.6191 C.ar    2  UNL2        0.0000
     30 C           3.5560   -2.8793    0.3870 C.ar    2  UNL2        0.0000
     31 C           2.5133   -3.1942    2.5352 C.ar    2  UNL2        0.0000
     32 C           3.3310   -4.2224    0.0768 C.ar    2  UNL2        0.0000
     33 C           2.2846   -4.5369    2.2293 C.ar    2  UNL2        0.0000
     34 C           2.6949   -5.0568    0.9995 C.ar    2  UNL2        0.0000
     35 H           4.0531   -2.2352   -0.3329 H       2  UNL2        0.0000
     36 H           2.1937   -2.7939    3.4929 H       2  UNL2        0.0000
     37 H           3.6543   -4.6161   -0.8828 H       2  UNL2        0.0000
     38 H           1.7863   -5.1772    2.9516 H       2  UNL2        0.0000
     39 H           2.5196   -6.1020    0.7616 H       2  UNL2        0.0000
@<TRIPOS>BOND
     1    37    32    1
     2     6     2    1
     3    35    30    1
     4     2     3    1
     5    32    30   ar
     6    32    34   ar
     7    30    29   ar
     8    14     9    1
     9    39    34    1
    10    34    33   ar
    11    17    16    1
    12    15    11    1
    13    29    16    1
    14    29    31   ar
    15     9    11   ar
    16     9     7   ar
    17     3    16    1
    18     3     5    1
    19     3     4    1
    20    16    18    1
    21     5     7    1
    22    11    12   ar
    23    33    31   ar
    24    33    38    1
    25     7     8   ar
    26    31    36    1
    27    26    25    1
    28    28    25    1
    29    25    27    1
    30    25    24    1
    31    12    24   ar
    32    12    10   ar
    33     8    10   ar
    34     8    13    1
    35    24    22   ar
    36    10    19   ar
    37    22    23    1
    38    22    20   ar
    39    19    20   ar
    40    20    21    2
    41     1     2    1
    42     1     4    1 
@<TRIPOS>MOLECULE
TS_4MU_phenylacetate_ZnHis3_OAc_ZnO_ENANTIOMER_TS_1050.xyz -124.321530072698
 39 42 0 0 0
SMALL
GASTEIGER

@<TRIPOS>ATOM
      1 ZN          0.0000    0.0000    0.0000 Zn      1  UNL1        0.0000
      2 O           1.9997    0.0000    0.0000 O.3     2  UNL2        0.0000
      3 C           2.1846    0.0000    1.7587 C.3     2  UNL2        0.0000
      4 O           1.0388   -0.3072    2.1561 O.3     2  UNL2        0.0000
      5 O           2.6568    1.3498    1.9615 O.3     2  UNL2        0.0000
      6 H           2.4052    0.8043   -0.3911 H       2  UNL2        0.0000
      7 C           1.6969    2.3320    1.8899 C.ar    2  UNL2        0.0000
      8 C           1.6501    3.1535    0.7678 C.ar    2  UNL2        0.0000
      9 C           0.7845    2.5021    2.9409 C.ar    2  UNL2        0.0000
     10 C           0.6251    4.0895    0.6667 C.ar    2  UNL2        0.0000
     11 C          -0.2034    3.4673    2.8405 C.ar    2  UNL2        0.0000
     12 C          -0.3233    4.2705    1.6885 C.ar    2  UNL2        0.0000
     13 H           2.3656    3.0495   -0.0392 H       2  UNL2        0.0000
     14 H           0.8525    1.8558    3.8079 H       2  UNL2        0.0000
     15 H          -0.9181    3.5846    3.6467 H       2  UNL2        0.0000
     16 C           3.4043   -0.9003    1.9510 C.3     2  UNL2        0.0000
     17 H           3.1534   -1.9054    1.6040 H       2  UNL2        0.0000
     18 H           4.1739   -0.5038    1.2770 H       2  UNL2        0.0000
     19 O           0.5673    4.8017   -0.5004 O.2     2  UNL2        0.0000
     20 C          -0.4452    5.7200   -0.7564 C.ar    2  UNL2        0.0000
     21 O          -0.4282    6.2685   -1.8424 O.2     2  UNL2        0.0000
     22 C          -1.4144    5.9212    0.2990 C.ar    2  UNL2        0.0000
     23 H          -2.1898    6.6485    0.0886 H       2  UNL2        0.0000
     24 C          -1.3783    5.2422    1.4774 C.ar    2  UNL2        0.0000
     25 C          -2.4152    5.4675    2.5388 C.3     2  UNL2        0.0000
     26 H          -1.9493    5.7897    3.4771 H       2  UNL2        0.0000
     27 H          -3.1358    6.2272    2.2290 H       2  UNL2        0.0000
     28 H          -2.9580    4.5393    2.7508 H       2  UNL2        0.0000
     29 C           3.9192   -0.9356    3.3673 C.ar    2  UNL2        0.0000
     30 C           5.2617   -0.6474    3.6458 C.ar    2  UNL2        0.0000
     31 C           3.0671   -1.2518    4.4330 C.ar    2  UNL2        0.0000
     32 C           5.7427   -0.6716    4.9568 C.ar    2  UNL2        0.0000
     33 C           3.5433   -1.2790    5.7448 C.ar    2  UNL2        0.0000
     34 C           4.8827   -0.9866    6.0121 C.ar    2  UNL2        0.0000
     35 H           5.9338   -0.3997    2.8289 H       2  UNL2        0.0000
     36 H           2.0247   -1.4788    4.2294 H       2  UNL2        0.0000
     37 H           6.7863   -0.4426    5.1530 H       2  UNL2        0.0000
     38 H           2.8681   -1.5282    6.5585 H       2  UNL2        0.0000
     39 H           5.2536   -1.0050    7.0329 H       2  UNL2        0.0000
@<TRIPOS>BOND
     1    21    20    2
     2    20    19   ar
     3    20    22   ar
     4    19    10   ar
     5     6     2    1
     6    13     8    1
     7     2     3    1
     8    23    22    1
     9    22    24   ar
    10    10     8   ar
    11    10    12   ar
    12     8     7   ar
    13    18    16    1
    14    24    12   ar
    15    24    25    1
    16    17    16    1
    17    12    11   ar
    18     3    16    1
    19     3     5    1
    20     3     4    1
    21     7     5    1
    22     7     9   ar
    23    16    29    1
    24    27    25    1
    25    25    28    1
    26    25    26    1
    27    35    30    1
    28    11     9   ar
    29    11    15    1
    30     9    14    1
    31    29    30   ar
    32    29    31   ar
    33    30    32   ar
    34    36    31    1
    35    31    33   ar
    36    32    37    1
    37    32    34   ar
    38    33    34   ar
    39    33    38    1
    40    34    39    1
    41     1     2    1
    42     1     4    1 
@<TRIPOS>MOLECULE
TS_4MU_phenylacetate_ZnHis3_OAc_ZnO_ENANTIOMER_TS_1408.xyz -124.321408642213
 39 42 0 0 0
SMALL
GASTEIGER

@<TRIPOS>ATOM
      1 ZN          0.0000    0.0000    0.0000 Zn      1  UNL1        0.0000
      2 O           1.9997    0.0000    0.0000 O.3     2  UNL2        0.0000
      3 C           2.1846    0.0000    1.7587 C.3     2  UNL2        0.0000
      4 O           1.0388   -0.3072    2.1561 O.3     2  UNL2        0.0000
      5 O           2.6568    1.3498    1.9615 O.3     2  UNL2        0.0000
      6 H           2.4052    0.8043   -0.3911 H       2  UNL2        0.0000
      7 C           1.7358    2.2297    2.4800 C.ar    2  UNL2        0.0000
      8 C           1.3460    2.0978    3.8093 C.ar    2  UNL2        0.0000
      9 C           1.1958    3.2403    1.6719 C.ar    2  UNL2        0.0000
     10 C           0.4771    3.0421    4.3480 C.ar    2  UNL2        0.0000
     11 C           0.3000    4.1459    2.2152 C.ar    2  UNL2        0.0000
     12 C          -0.0641    4.0844    3.5754 C.ar    2  UNL2        0.0000
     13 H           1.7361    1.3054    4.4368 H       2  UNL2        0.0000
     14 H           1.5085    3.3114    0.6370 H       2  UNL2        0.0000
     15 H          -0.1023    4.9367    1.5928 H       2  UNL2        0.0000
     16 C           3.4043   -0.9003    1.9510 C.3     2  UNL2        0.0000
     17 H           4.1996   -0.5558    1.2859 H       2  UNL2        0.0000
     18 H           3.7407   -0.7267    2.9809 H       2  UNL2        0.0000
     19 O           0.2051    2.9232    5.6839 O.2     2  UNL2        0.0000
     20 C          -0.5940    3.8390    6.3597 C.ar    2  UNL2        0.0000
     21 O          -0.7382    3.6657    7.5554 O.2     2  UNL2        0.0000
     22 C          -1.1662    4.9043    5.5651 C.ar    2  UNL2        0.0000
     23 H          -1.7959    5.6025    6.1042 H       2  UNL2        0.0000
     24 C          -0.9298    5.0439    4.2326 C.ar    2  UNL2        0.0000
     25 C          -1.5282    6.1754    3.4491 C.3     2  UNL2        0.0000
     26 H          -2.1405    5.7968    2.6227 H       2  UNL2        0.0000
     27 H          -2.1531    6.8061    4.0849 H       2  UNL2        0.0000
     28 H          -0.7412    6.7977    3.0081 H       2  UNL2        0.0000
     29 C           3.1216   -2.3650    1.7343 C.ar    2  UNL2        0.0000
     30 C           2.2374   -3.0530    2.5755 C.ar    2  UNL2        0.0000
     31 C           3.7320   -3.0663    0.6868 C.ar    2  UNL2        0.0000
     32 C           1.9662   -4.4084    2.3752 C.ar    2  UNL2        0.0000
     33 C           3.4657   -4.4214    0.4835 C.ar    2  UNL2        0.0000
     34 C           2.5796   -5.0972    1.3256 C.ar    2  UNL2        0.0000
     35 H           1.7561   -2.5213    3.3916 H       2  UNL2        0.0000
     36 H           4.4209   -2.5442    0.0293 H       2  UNL2        0.0000
     37 H           1.2754   -4.9239    3.0364 H       2  UNL2        0.0000
     38 H           3.9498   -4.9495   -0.3331 H       2  UNL2        0.0000
     39 H           2.3698   -6.1510    1.1665 H       2  UNL2        0.0000
@<TRIPOS>BOND
     1     6     2    1
     2    38    33    1
     3     2     3    1
     4    36    31    1
     5    33    31   ar
     6    33    34   ar
     7    14     9    1
     8    31    29   ar
     9    39    34    1
    10    17    16    1
    11    34    32   ar
    12    15    11    1
    13     9    11   ar
    14     9     7   ar
    15    29    16    1
    16    29    30   ar
    17     3    16    1
    18     3     5    1
    19     3     4    1
    20    16    18    1
    21     5     7    1
    22    11    12   ar
    23    32    30   ar
    24    32    37    1
    25     7     8   ar
    26    30    35    1
    27    26    25    1
    28    28    25    1
    29    25    27    1
    30    25    24    1
    31    12    24   ar
    32    12    10   ar
    33     8    10   ar
    34     8    13    1
    35    24    22   ar
    36    10    19   ar
    37    22    23    1
    38    22    20   ar
    39    19    20   ar
    40    20    21    2
    41     1     2    1
    42     1     4    1 
@<TRIPOS>MOLECULE
TS_4MU_phenylacetate_ZnHis3_OAc_ZnO_ENANTIOMER_TS_3304.xyz -124.320710838317
 39 42 0 0 0
SMALL
GASTEIGER

@<TRIPOS>ATOM
      1 ZN          0.0000    0.0000    0.0000 Zn      1  UNL1        0.0000
      2 O           1.9997    0.0000    0.0000 O.3     2  UNL2        0.0000
      3 C           2.1846    0.0000    1.7587 C.3     2  UNL2        0.0000
      4 O           1.0388   -0.3072    2.1561 O.3     2  UNL2        0.0000
      5 O           2.6568    1.3498    1.9615 O.3     2  UNL2        0.0000
      6 H           2.4052    0.8043   -0.3911 H       2  UNL2        0.0000
      7 C           1.6834    2.3207    1.9967 C.ar    2  UNL2        0.0000
      8 C           0.9273    2.4808    3.1538 C.ar    2  UNL2        0.0000
      9 C           1.4568    3.1308    0.8750 C.ar    2  UNL2        0.0000
     10 C           0.0020    3.5189    3.2095 C.ar    2  UNL2        0.0000
     11 C           0.5022    4.1322    0.9352 C.ar    2  UNL2        0.0000
     12 C          -0.2337    4.3677    2.1140 C.ar    2  UNL2        0.0000
     13 H           1.0747    1.8442    4.0181 H       2  UNL2        0.0000
     14 H           2.0524    2.9753   -0.0167 H       2  UNL2        0.0000
     15 H           0.3415    4.7682    0.0726 H       2  UNL2        0.0000
     16 C           3.4043   -0.9003    1.9510 C.3     2  UNL2        0.0000
     17 H           3.0661   -1.9377    2.0063 H       2  UNL2        0.0000
     18 H           3.9958   -0.7972    1.0327 H       2  UNL2        0.0000
     19 O          -0.6423    3.6933    4.4042 O.2     2  UNL2        0.0000
     20 C          -1.5412    4.7334    4.6140 C.ar    2  UNL2        0.0000
     21 O          -2.0270    4.8243    5.7259 O.2     2  UNL2        0.0000
     22 C          -1.7989    5.5999    3.4842 C.ar    2  UNL2        0.0000
     23 H          -2.5105    6.3981    3.6606 H       2  UNL2        0.0000
     24 C          -1.1883    5.4464    2.2782 C.ar    2  UNL2        0.0000
     25 C          -1.4702    6.3799    1.1374 C.3     2  UNL2        0.0000
     26 H          -1.8469    5.8300    0.2673 H       2  UNL2        0.0000
     27 H          -2.2087    7.1333    1.4196 H       2  UNL2        0.0000
     28 H          -0.5538    6.8921    0.8227 H       2  UNL2        0.0000
     29 C           4.2413   -0.5450    3.1533 C.ar    2  UNL2        0.0000
     30 C           3.6467   -0.3691    4.4097 C.ar    2  UNL2        0.0000
     31 C           5.6285   -0.3882    3.0410 C.ar    2  UNL2        0.0000
     32 C           4.4180   -0.0467    5.5285 C.ar    2  UNL2        0.0000
     33 C           6.4036   -0.0644    4.1559 C.ar    2  UNL2        0.0000
     34 C           5.8015    0.1052    5.4047 C.ar    2  UNL2        0.0000
     35 H           2.5717   -0.4884    4.5116 H       2  UNL2        0.0000
     36 H           6.1006   -0.5202    2.0718 H       2  UNL2        0.0000
     37 H           3.9390    0.0829    6.4950 H       2  UNL2        0.0000
     38 H           7.4781    0.0549    4.0493 H       2  UNL2        0.0000
     39 H           6.4041    0.3546    6.2733 H       2  UNL2        0.0000
@<TRIPOS>BOND
     1     6     2    1
     2    14     9    1
     3     2     3    1
     4    15    11    1
     5    26    25    1
     6    28    25    1
     7     9    11   ar
     8     9     7   ar
     9    11    12   ar
    10    18    16    1
    11    25    27    1
    12    25    24    1
    13     3    16    1
    14     3     5    1
    15     3     4    1
    16    16    17    1
    17    16    29    1
    18     5     7    1
    19     7     8   ar
    20    36    31    1
    21    12    24   ar
    22    12    10   ar
    23    24    22   ar
    24    31    29   ar
    25    31    33   ar
    26    29    30   ar
    27     8    10   ar
    28     8    13    1
    29    10    19   ar
    30    22    23    1
    31    22    20   ar
    32    38    33    1
    33    33    34   ar
    34    19    20   ar
    35    30    35    1
    36    30    32   ar
    37    20    21    2
    38    34    32   ar
    39    34    39    1
    40    32    37    1
    41     1     2    1
    42     1     4    1 
@<TRIPOS>MOLECULE
TS_4MU_phenylacetate_ZnHis3_OAc_ZnO_ENANTIOMER_TS_1451.xyz -124.320474352575
 39 42 0 0 0
SMALL
GASTEIGER

@<TRIPOS>ATOM
      1 ZN          0.0000    0.0000    0.0000 Zn      1  UNL1        0.0000
      2 O           1.9997    0.0000    0.0000 O.3     2  UNL2        0.0000
      3 C           2.1846    0.0000    1.7587 C.3     2  UNL2        0.0000
      4 O           1.0388   -0.3072    2.1561 O.3     2  UNL2        0.0000
      5 O           2.6568    1.3498    1.9615 O.3     2  UNL2        0.0000
      6 H           2.4052    0.8043   -0.3911 H       2  UNL2        0.0000
      7 C           1.6796    2.3124    2.0610 C.ar    2  UNL2        0.0000
      8 C           0.9370    2.4057    3.2341 C.ar    2  UNL2        0.0000
      9 C           1.4357    3.1809    0.9877 C.ar    2  UNL2        0.0000
     10 C           0.0079    3.4344    3.3571 C.ar    2  UNL2        0.0000
     11 C           0.4774    4.1726    1.1136 C.ar    2  UNL2        0.0000
     12 C          -0.2450    4.3402    2.3121 C.ar    2  UNL2        0.0000
     13 H           1.0978    1.7239    4.0607 H       2  UNL2        0.0000
     14 H           2.0210    3.0770    0.0818 H       2  UNL2        0.0000
     15 H           0.3033    4.8537    0.2887 H       2  UNL2        0.0000
     16 C           3.4043   -0.9003    1.9510 C.3     2  UNL2        0.0000
     17 H           4.3060   -0.2969    1.8228 H       2  UNL2        0.0000
     18 H           3.3720   -1.2222    2.9995 H       2  UNL2        0.0000
     19 O          -0.6226    3.5406    4.5671 O.2     2  UNL2        0.0000
     20 C          -1.5234    4.5632    4.8438 C.ar    2  UNL2        0.0000
     21 O          -1.9960    4.5911    5.9647 O.2     2  UNL2        0.0000
     22 C          -1.7988    5.4883    3.7659 C.ar    2  UNL2        0.0000
     23 H          -2.5118    6.2721    3.9938 H       2  UNL2        0.0000
     24 C          -1.2023    5.4035    2.5461 C.ar    2  UNL2        0.0000
     25 C          -1.5024    6.3960    1.4610 C.3     2  UNL2        0.0000
     26 H          -1.8872    5.8922    0.5670 H       2  UNL2        0.0000
     27 H          -2.2406    7.1292    1.7926 H       2  UNL2        0.0000
     28 H          -0.5921    6.9292    1.1636 H       2  UNL2        0.0000
     29 C           3.4277   -2.0992    1.0376 C.ar    2  UNL2        0.0000
     30 C           3.9671   -2.0033   -0.2518 C.ar    2  UNL2        0.0000
     31 C           2.9161   -3.3329    1.4596 C.ar    2  UNL2        0.0000
     32 C           3.9978   -3.1126   -1.0999 C.ar    2  UNL2        0.0000
     33 C           2.9429   -4.4441    0.6151 C.ar    2  UNL2        0.0000
     34 C           3.4863   -4.3387   -0.6673 C.ar    2  UNL2        0.0000
     35 H           4.3682   -1.0527   -0.5920 H       2  UNL2        0.0000
     36 H           2.4937   -3.4190    2.4564 H       2  UNL2        0.0000
     37 H           4.4227   -3.0191   -2.0954 H       2  UNL2        0.0000
     38 H           2.5399   -5.3924    0.9590 H       2  UNL2        0.0000
     39 H           3.5099   -5.2035   -1.3241 H       2  UNL2        0.0000
@<TRIPOS>BOND
     1    37    32    1
     2    39    34    1
     3    32    34   ar
     4    32    30   ar
     5    34    33   ar
     6    35    30    1
     7     6     2    1
     8    30    29   ar
     9     2     3    1
    10    14     9    1
    11    15    11    1
    12    26    25    1
    13    33    38    1
    14    33    31   ar
    15     9    11   ar
    16     9     7   ar
    17    29    31   ar
    18    29    16    1
    19    11    12   ar
    20    28    25    1
    21    31    36    1
    22    25    27    1
    23    25    24    1
    24     3    16    1
    25     3     5    1
    26     3     4    1
    27    17    16    1
    28    16    18    1
    29     5     7    1
    30     7     8   ar
    31    12    24   ar
    32    12    10   ar
    33    24    22   ar
    34     8    10   ar
    35     8    13    1
    36    10    19   ar
    37    22    23    1
    38    22    20   ar
    39    19    20   ar
    40    20    21    2
    41     1     2    1
    42     1     4    1 
