@<TRIPOS>MOLECULE
TS_4MU_phenylacetate_ZnHis3_OAc_ZnO_0.xyz -124.331529960375
 39 42 0 0 0
SMALL
GASTEIGER

@<TRIPOS>ATOM
      1 ZN         -0.9031   -0.4566   -0.4194 Zn      1  UNL1        0.0000
      2 O          -0.7413    0.9552    1.0301 O.3     1  UNL1        0.0000
      3 C          -0.5481   -0.2641    2.3259 C.3     1  UNL1        0.0000
      4 O          -0.4314   -1.3209    1.6560 O.3     1  UNL1        0.0000
      5 O           0.5786    0.2709    2.9994 O.3     1  UNL1        0.0000
      6 H          -1.5374    1.5196    1.0966 H       1  UNL1        0.0000
      7 C           1.7756    0.3147    2.3270 C.ar    1  UNL1        0.0000
      8 C           2.3699   -0.8185    1.7783 C.ar    1  UNL1        0.0000
      9 C           2.4007    1.5692    2.2358 C.ar    1  UNL1        0.0000
     10 C           3.5730   -0.6674    1.0953 C.ar    1  UNL1        0.0000
     11 C           3.6161    1.6896    1.5832 C.ar    1  UNL1        0.0000
     12 C           4.2302    0.5720    0.9839 C.ar    1  UNL1        0.0000
     13 H           1.8931   -1.7848    1.8369 H       1  UNL1        0.0000
     14 H           1.9092    2.4309    2.6728 H       1  UNL1        0.0000
     15 H           4.0909    2.6616    1.5141 H       1  UNL1        0.0000
     16 C          -1.7634   -0.0075    3.2215 C.3     1  UNL1        0.0000
     17 H          -1.7010   -0.7530    4.0244 H       1  UNL1        0.0000
     18 H          -1.6662    0.9787    3.6814 H       1  UNL1        0.0000
     19 O           4.0777   -1.7969    0.5097 O.2     1  UNL1        0.0000
     20 C           5.2037   -1.7661   -0.2942 C.ar    1  UNL1        0.0000
     21 O           5.4882   -2.7951   -0.8854 O.2     1  UNL1        0.0000
     22 C           5.9201   -0.5122   -0.3604 C.ar    1  UNL1        0.0000
     23 H           6.8294   -0.5212   -0.9502 H       1  UNL1        0.0000
     24 C           5.4716    0.6243    0.2399 C.ar    1  UNL1        0.0000
     25 C           6.2217    1.9186    0.1145 C.3     1  UNL1        0.0000
     26 H           6.4803    2.3174    1.1021 H       1  UNL1        0.0000
     27 H           7.1415    1.7848   -0.4588 H       1  UNL1        0.0000
     28 H           5.6067    2.6747   -0.3878 H       1  UNL1        0.0000
     29 C          -3.0720   -0.1298    2.4801 C.ar    1  UNL1        0.0000
     30 C          -3.8497    1.0059    2.2208 C.ar    1  UNL1        0.0000
     31 C          -3.5106   -1.3707    1.9984 C.ar    1  UNL1        0.0000
     32 C          -5.0399    0.9070    1.4956 C.ar    1  UNL1        0.0000
     33 C          -4.6901   -1.4714    1.2615 C.ar    1  UNL1        0.0000
     34 C          -5.4612   -0.3328    1.0093 C.ar    1  UNL1        0.0000
     35 H          -3.5223    1.9750    2.5897 H       1  UNL1        0.0000
     36 H          -2.9134   -2.2549    2.1872 H       1  UNL1        0.0000
     37 H          -5.6320    1.7978    1.3064 H       1  UNL1        0.0000
     38 H          -5.0057   -2.4398    0.8835 H       1  UNL1        0.0000
     39 H          -6.3829   -0.4115    0.4400 H       1  UNL1        0.0000
@<TRIPOS>BOND
     1    23    22    1
     2    21    20    2
     3    27    25    1
     4     1     4    1
     5    28    25    1
     6    22    20   ar
     7    22    24   ar
     8    20    19   ar
     9    25    24    1
    10    25    26    1
    11    24    12   ar
    12    39    34    1
    13    19    10   ar
    14    38    33    1
    15    12    10   ar
    16    12    11   ar
    17    34    33   ar
    18    34    32   ar
    19     2     6    1
    20     2     3    1
    21    10     8   ar
    22    33    31   ar
    23    37    32    1
    24    32    30   ar
    25    15    11    1
    26    11     9   ar
    27     4     3    1
    28     8    13    1
    29     8     7   ar
    30    31    36    1
    31    31    29   ar
    32    30    29   ar
    33    30    35    1
    34     9     7   ar
    35     9    14    1
    36     3     5    1
    37     3    16    1
    38     7     5    1
    39    29    16    1
    40    16    18    1
    41    16    17    1
    42     1     2    1 
@<TRIPOS>MOLECULE
TS_4MU_phenylacetate_ZnHis3_OAc_ZnO_3417.xyz -124.327491038413
 39 42 0 0 0
SMALL
GASTEIGER

@<TRIPOS>ATOM
      1 ZN          0.0000    0.0000    0.0000 Zn      1  UNL1        0.0000
      2 O           2.0299    0.0000    0.0000 O.3     1  UNL1        0.0000
      3 C           2.1226    0.0000    1.7873 C.3     1  UNL1        0.0000
      4 O           0.9185   -0.1821    2.0976 O.3     1  UNL1        0.0000
      5 O           3.0655   -1.0403    1.9834 O.3     1  UNL1        0.0000
      6 H           2.4064    0.7870   -0.4424 H       1  UNL1        0.0000
      7 C           2.6364   -2.3382    1.8491 C.ar    1  UNL1        0.0000
      8 C           1.8283   -2.9630    2.7951 C.ar    1  UNL1        0.0000
      9 C           3.0753   -3.0314    0.7092 C.ar    1  UNL1        0.0000
     10 C           1.4271   -4.2743    2.5574 C.ar    1  UNL1        0.0000
     11 C           2.6936   -4.3478    0.5116 C.ar    1  UNL1        0.0000
     12 C           1.8471   -5.0020    1.4285 C.ar    1  UNL1        0.0000
     13 H           1.4801   -2.4358    3.6699 H       1  UNL1        0.0000
     14 H           3.7021   -2.5138   -0.0080 H       1  UNL1        0.0000
     15 H           3.0337   -4.8753   -0.3722 H       1  UNL1        0.0000
     16 C           2.8438    1.3159    2.0927 C.3     1  UNL1        0.0000
     17 H           3.1034    1.2697    3.1580 H       1  UNL1        0.0000
     18 H           3.7787    1.3500    1.5285 H       1  UNL1        0.0000
     19 O           0.5727   -4.8177    3.4782 O.2     1  UNL1        0.0000
     20 C           0.0066   -6.0686    3.3053 C.ar    1  UNL1        0.0000
     21 O          -0.8517   -6.4018    4.1063 O.2     1  UNL1        0.0000
     22 C           0.4821   -6.8472    2.1839 C.ar    1  UNL1        0.0000
     23 H           0.0683   -7.8450    2.0955 H       1  UNL1        0.0000
     24 C           1.3609   -6.3567    1.2672 C.ar    1  UNL1        0.0000
     25 C           1.8005   -7.1810    0.0921 C.3     1  UNL1        0.0000
     26 H           2.8918   -7.2801    0.0707 H       1  UNL1        0.0000
     27 H           1.3608   -8.1801    0.1275 H       1  UNL1        0.0000
     28 H           1.5013   -6.7038   -0.8486 H       1  UNL1        0.0000
     29 C           1.9946    2.5289    1.8023 C.ar    1  UNL1        0.0000
     30 C           2.2796    3.3483    0.7026 C.ar    1  UNL1        0.0000
     31 C           0.8809    2.8323    2.5973 C.ar    1  UNL1        0.0000
     32 C           1.4707    4.4470    0.4011 C.ar    1  UNL1        0.0000
     33 C           0.0628    3.9192    2.2912 C.ar    1  UNL1        0.0000
     34 C           0.3560    4.7326    1.1928 C.ar    1  UNL1        0.0000
     35 H           3.1413    3.1256    0.0779 H       1  UNL1        0.0000
     36 H           0.6469    2.2014    3.4466 H       1  UNL1        0.0000
     37 H           1.7084    5.0734   -0.4540 H       1  UNL1        0.0000
     38 H          -0.8047    4.1291    2.9106 H       1  UNL1        0.0000
     39 H          -0.2779    5.5826    0.9570 H       1  UNL1        0.0000
@<TRIPOS>BOND
     1    28    25    1
     2    37    32    1
     3     6     2    1
     4    15    11    1
     5    14     9    1
     6     2     3    1
     7     1     4    1
     8    26    25    1
     9    35    30    1
    10    25    27    1
    11    25    24    1
    12    32    30   ar
    13    32    34   ar
    14    11     9   ar
    15    11    12   ar
    16    30    29   ar
    17     9     7   ar
    18    39    34    1
    19    34    33   ar
    20    24    12   ar
    21    24    22   ar
    22    12    10   ar
    23    18    16    1
    24     3     5    1
    25     3    16    1
    26     3     4    1
    27    29    16    1
    28    29    31   ar
    29     7     5    1
    30     7     8   ar
    31    16    17    1
    32    23    22    1
    33    22    20   ar
    34    33    31   ar
    35    33    38    1
    36    10     8   ar
    37    10    19   ar
    38    31    36    1
    39     8    13    1
    40    20    19   ar
    41    20    21    2
    42     1     2    1 
@<TRIPOS>MOLECULE
TS_4MU_phenylacetate_ZnHis3_OAc_ZnO_3432.xyz -124.326318883664
 39 42 0 0 0
SMALL
GASTEIGER

@<TRIPOS>ATOM
      1 ZN          0.0000    0.0000    0.0000 Zn      1  UNL1        0.0000
      2 O           2.0299    0.0000    0.0000 O.3     1  UNL1        0.0000
      3 C           2.1226    0.0000    1.7873 C.3     1  UNL1        0.0000
      4 O           0.9185   -0.1821    2.0976 O.3     1  UNL1        0.0000
      5 O           3.0655   -1.0403    1.9834 O.3     1  UNL1        0.0000
      6 H           2.4064    0.7870   -0.4424 H       1  UNL1        0.0000
      7 C           2.6126   -2.2430    2.4682 C.ar    1  UNL1        0.0000
      8 C           1.3828   -2.7840    2.1030 C.ar    1  UNL1        0.0000
      9 C           3.4451   -2.9058    3.3848 C.ar    1  UNL1        0.0000
     10 C           1.0229   -4.0203    2.6312 C.ar    1  UNL1        0.0000
     11 C           3.0499   -4.1176    3.9260 C.ar    1  UNL1        0.0000
     12 C           1.8289   -4.7138    3.5529 C.ar    1  UNL1        0.0000
     13 H           0.7403   -2.2856    1.3937 H       1  UNL1        0.0000
     14 H           4.3968   -2.4570    3.6456 H       1  UNL1        0.0000
     15 H           3.6992   -4.6249    4.6304 H       1  UNL1        0.0000
     16 C           2.8438    1.3159    2.0927 C.3     1  UNL1        0.0000
     17 H           2.6250    1.5349    3.1456 H       1  UNL1        0.0000
     18 H           3.9218    1.1605    2.0073 H       1  UNL1        0.0000
     19 O          -0.1595   -4.5441    2.1832 O.2     1  UNL1        0.0000
     20 C          -0.5807   -5.8138    2.5376 C.ar    1  UNL1        0.0000
     21 O          -1.5731   -6.2442    1.9724 O.2     1  UNL1        0.0000
     22 C           0.2074   -6.5051    3.5329 C.ar    1  UNL1        0.0000
     23 H          -0.1675   -7.4750    3.8385 H       1  UNL1        0.0000
     24 C           1.3693   -6.0011    4.0320 C.ar    1  UNL1        0.0000
     25 C           2.1827   -6.7672    5.0345 C.3     1  UNL1        0.0000
     26 H           2.3359   -6.1776    5.9456 H       1  UNL1        0.0000
     27 H           1.6908   -7.7041    5.3047 H       1  UNL1        0.0000
     28 H           3.1748   -7.0004    4.6304 H       1  UNL1        0.0000
     29 C           2.3910    2.4500    1.2063 C.ar    1  UNL1        0.0000
     30 C           1.0758    2.9264    1.2793 C.ar    1  UNL1        0.0000
     31 C           3.2864    3.0767    0.3290 C.ar    1  UNL1        0.0000
     32 C           0.6619    4.0058    0.4944 C.ar    1  UNL1        0.0000
     33 C           2.8813    4.1635   -0.4451 C.ar    1  UNL1        0.0000
     34 C           1.5662    4.6310   -0.3672 C.ar    1  UNL1        0.0000
     35 H           0.3698    2.4488    1.9546 H       1  UNL1        0.0000
     36 H           4.3082    2.7209    0.2693 H       1  UNL1        0.0000
     37 H          -0.3627    4.3602    0.5616 H       1  UNL1        0.0000
     38 H           3.5943    4.6456   -1.1080 H       1  UNL1        0.0000
     39 H           1.2487    5.4740   -0.9740 H       1  UNL1        0.0000
@<TRIPOS>BOND
     1    38    33    1
     2    39    34    1
     3    33    34   ar
     4    33    31   ar
     5     6     2    1
     6    34    32   ar
     7     2     3    1
     8     1     4    1
     9    36    31    1
    10    31    29   ar
    11    32    37    1
    12    32    30   ar
    13    29    30   ar
    14    29    16    1
    15    30    35    1
    16    13     8    1
    17     3     5    1
    18     3    16    1
    19     3     4    1
    20    21    20    2
    21     5     7    1
    22    18    16    1
    23    16    17    1
    24     8     7   ar
    25     8    10   ar
    26    19    20   ar
    27    19    10   ar
    28     7     9   ar
    29    20    22   ar
    30    10    12   ar
    31     9    14    1
    32     9    11   ar
    33    22    23    1
    34    22    24   ar
    35    12    11   ar
    36    12    24   ar
    37    11    15    1
    38    24    25    1
    39    28    25    1
    40    25    27    1
    41    25    26    1
    42     1     2    1 
@<TRIPOS>MOLECULE
TS_4MU_phenylacetate_ZnHis3_OAc_ZnO_409.xyz -124.325356375173
 39 42 0 0 0
SMALL
GASTEIGER

@<TRIPOS>ATOM
      1 ZN          0.0000    0.0000    0.0000 Zn      1  UNL1        0.0000
      2 O           2.0299    0.0000    0.0000 O.3     1  UNL1        0.0000
      3 C           2.1226    0.0000    1.7873 C.3     1  UNL1        0.0000
      4 O           0.9185   -0.1821    2.0976 O.3     1  UNL1        0.0000
      5 O           3.0655   -1.0403    1.9834 O.3     1  UNL1        0.0000
      6 H           2.4064    0.7870   -0.4424 H       1  UNL1        0.0000
      7 C           2.5976   -2.2793    2.3477 C.ar    1  UNL1        0.0000
      8 C           2.5114   -2.6881    3.6757 C.ar    1  UNL1        0.0000
      9 C           2.2266   -3.1435    1.3045 C.ar    1  UNL1        0.0000
     10 C           2.0022   -3.9552    3.9443 C.ar    1  UNL1        0.0000
     11 C           1.7571   -4.4138    1.5939 C.ar    1  UNL1        0.0000
     12 C           1.6216   -4.8498    2.9269 C.ar    1  UNL1        0.0000
     13 H           2.7869   -2.0281    4.4838 H       1  UNL1        0.0000
     14 H           2.3049   -2.7922    0.2820 H       1  UNL1        0.0000
     15 H           1.4696   -5.0740    0.7837 H       1  UNL1        0.0000
     16 C           2.8438    1.3159    2.0927 C.3     1  UNL1        0.0000
     17 H           2.9085    1.3698    3.1869 H       1  UNL1        0.0000
     18 H           3.8642    1.2620    1.7061 H       1  UNL1        0.0000
     19 O           1.8667   -4.2806    5.2667 O.2     1  UNL1        0.0000
     20 C           1.2684   -5.4600    5.6746 C.ar    1  UNL1        0.0000
     21 O           1.0644   -5.5907    6.8707 O.2     1  UNL1        0.0000
     22 C           0.9347   -6.4110    4.6384 C.ar    1  UNL1        0.0000
     23 H           0.5176   -7.3512    4.9801 H       1  UNL1        0.0000
     24 C           1.0901   -6.1405    3.3133 C.ar    1  UNL1        0.0000
     25 C           0.6935   -7.1379    2.2638 C.3     1  UNL1        0.0000
     26 H           1.5417   -7.3778    1.6124 H       1  UNL1        0.0000
     27 H           0.3313   -8.0625    2.7184 H       1  UNL1        0.0000
     28 H          -0.0995   -6.7320    1.6246 H       1  UNL1        0.0000
     29 C           2.1213    2.5202    1.5407 C.ar    1  UNL1        0.0000
     30 C           2.6259    3.2012    0.4256 C.ar    1  UNL1        0.0000
     31 C           0.9120    2.9514    2.1026 C.ar    1  UNL1        0.0000
     32 C           1.9387    4.2892   -0.1188 C.ar    1  UNL1        0.0000
     33 C           0.2157    4.0274    1.5533 C.ar    1  UNL1        0.0000
     34 C           0.7278    4.7025    0.4415 C.ar    1  UNL1        0.0000
     35 H           3.5640    2.8785   -0.0198 H       1  UNL1        0.0000
     36 H           0.5087    2.4277    2.9613 H       1  UNL1        0.0000
     37 H           2.3462    4.8075   -0.9820 H       1  UNL1        0.0000
     38 H          -0.7279    4.3371    1.9939 H       1  UNL1        0.0000
     39 H           0.1885    5.5442    0.0165 H       1  UNL1        0.0000
@<TRIPOS>BOND
     1    37    32    1
     2     6     2    1
     3    32    30   ar
     4    32    34   ar
     5    35    30    1
     6     2     3    1
     7     1     4    1
     8    39    34    1
     9    14     9    1
    10    30    29   ar
    11    34    33   ar
    12    15    11    1
    13     9    11   ar
    14     9     7   ar
    15    29    16    1
    16    29    31   ar
    17    33    38    1
    18    33    31   ar
    19    11    12   ar
    20    26    25    1
    21    28    25    1
    22    18    16    1
    23     3     5    1
    24     3    16    1
    25     3     4    1
    26     5     7    1
    27    16    17    1
    28    31    36    1
    29    25    27    1
    30    25    24    1
    31     7     8   ar
    32    12    24   ar
    33    12    10   ar
    34    24    22   ar
    35     8    10   ar
    36     8    13    1
    37    10    19   ar
    38    22    23    1
    39    22    20   ar
    40    19    20   ar
    41    20    21    2
    42     1     2    1 
@<TRIPOS>MOLECULE
TS_4MU_phenylacetate_ZnHis3_OAc_ZnO_2850.xyz -124.325168400071
 39 42 0 0 0
SMALL
GASTEIGER

@<TRIPOS>ATOM
      1 ZN          0.0000    0.0000    0.0000 Zn      1  UNL1        0.0000
      2 O           2.0299    0.0000    0.0000 O.3     1  UNL1        0.0000
      3 C           2.1226    0.0000    1.7873 C.3     1  UNL1        0.0000
      4 O           0.9185   -0.1821    2.0976 O.3     1  UNL1        0.0000
      5 O           3.0655   -1.0403    1.9834 O.3     1  UNL1        0.0000
      6 H           2.4064    0.7870   -0.4424 H       1  UNL1        0.0000
      7 C           2.5931   -2.2989    2.2656 C.ar    1  UNL1        0.0000
      8 C           2.1375   -2.6633    3.5296 C.ar    1  UNL1        0.0000
      9 C           2.6127   -3.2289    1.2133 C.ar    1  UNL1        0.0000
     10 C           1.6565   -3.9569    3.7100 C.ar    1  UNL1        0.0000
     11 C           2.1635   -4.5215    1.4255 C.ar    1  UNL1        0.0000
     12 C           1.6613   -4.9170    2.6812 C.ar    1  UNL1        0.0000
     13 H           2.1116   -1.9533    4.3418 H       1  UNL1        0.0000
     14 H           2.9724   -2.9109    0.2414 H       1  UNL1        0.0000
     15 H           2.1786   -5.2329    0.6077 H       1  UNL1        0.0000
     16 C           2.8438    1.3159    2.0927 C.3     1  UNL1        0.0000
     17 H           2.7014    1.4880    3.1671 H       1  UNL1        0.0000
     18 H           3.9146    1.1845    1.9208 H       1  UNL1        0.0000
     19 O           1.1502   -4.2425    4.9490 O.2     1  UNL1        0.0000
     20 C           0.5366   -5.4507    5.2302 C.ar    1  UNL1        0.0000
     21 O          -0.0097   -5.5528    6.3167 O.2     1  UNL1        0.0000
     22 C           0.5954   -6.4639    4.2008 C.ar    1  UNL1        0.0000
     23 H           0.1582   -7.4215    4.4587 H       1  UNL1        0.0000
     24 C           1.1251   -6.2314    2.9686 C.ar    1  UNL1        0.0000
     25 C           1.1312   -7.2964    1.9106 C.3     1  UNL1        0.0000
     26 H           2.1504   -7.4905    1.5575 H       1  UNL1        0.0000
     27 H           0.7111   -8.2298    2.2915 H       1  UNL1        0.0000
     28 H           0.5429   -6.9808    1.0409 H       1  UNL1        0.0000
     29 C           2.3076    2.4761    1.2906 C.ar    1  UNL1        0.0000
     30 C           1.0675    3.0452    1.6073 C.ar    1  UNL1        0.0000
     31 C           3.0577    3.0342    0.2465 C.ar    1  UNL1        0.0000
     32 C           0.5853    4.1484    0.8982 C.ar    1  UNL1        0.0000
     33 C           2.5867    4.1442   -0.4538 C.ar    1  UNL1        0.0000
     34 C           1.3470    4.7045   -0.1322 C.ar    1  UNL1        0.0000
     35 H           0.4742    2.6216    2.4141 H       1  UNL1        0.0000
     36 H           4.0215    2.6064   -0.0027 H       1  UNL1        0.0000
     37 H          -0.3799    4.5751    1.1554 H       1  UNL1        0.0000
     38 H           3.1896    4.5719   -1.2499 H       1  UNL1        0.0000
     39 H           0.9772    5.5658   -0.6810 H       1  UNL1        0.0000
@<TRIPOS>BOND
     1    38    33    1
     2    39    34    1
     3    33    34   ar
     4    33    31   ar
     5     6     2    1
     6    34    32   ar
     7    36    31    1
     8     2     3    1
     9     1     4    1
    10    14     9    1
    11    31    29   ar
    12    15    11    1
    13    32    37    1
    14    32    30   ar
    15    28    25    1
    16     9    11   ar
    17     9     7   ar
    18    29    30   ar
    19    29    16    1
    20    11    12   ar
    21    26    25    1
    22    30    35    1
    23     3     5    1
    24     3    16    1
    25     3     4    1
    26    25    27    1
    27    25    24    1
    28    18    16    1
    29     5     7    1
    30    16    17    1
    31     7     8   ar
    32    12    24   ar
    33    12    10   ar
    34    24    22   ar
    35     8    10   ar
    36     8    13    1
    37    10    19   ar
    38    22    23    1
    39    22    20   ar
    40    19    20   ar
    41    20    21    2
    42     1     2    1 
@<TRIPOS>MOLECULE
TS_4MU_phenylacetate_ZnHis3_OAc_ZnO_1034.xyz -124.325072128777
 39 42 0 0 0
SMALL
GASTEIGER

@<TRIPOS>ATOM
      1 ZN          0.0000    0.0000    0.0000 Zn      1  UNL1        0.0000
      2 O           2.0299    0.0000    0.0000 O.3     1  UNL1        0.0000
      3 C           2.1226    0.0000    1.7873 C.3     1  UNL1        0.0000
      4 O           0.9185   -0.1821    2.0976 O.3     1  UNL1        0.0000
      5 O           3.0655   -1.0403    1.9834 O.3     1  UNL1        0.0000
      6 H           2.4064    0.7870   -0.4424 H       1  UNL1        0.0000
      7 C           2.6639   -2.3325    1.7473 C.ar    1  UNL1        0.0000
      8 C           2.9308   -2.9946    0.5520 C.ar    1  UNL1        0.0000
      9 C           1.9365   -2.9623    2.7704 C.ar    1  UNL1        0.0000
     10 C           2.5017   -4.3117    0.4172 C.ar    1  UNL1        0.0000
     11 C           1.4875   -4.2611    2.5997 C.ar    1  UNL1        0.0000
     12 C           1.7694   -4.9759    1.4186 C.ar    1  UNL1        0.0000
     13 H           3.4955   -2.5212   -0.2363 H       1  UNL1        0.0000
     14 H           1.7481   -2.4182    3.6888 H       1  UNL1        0.0000
     15 H           0.9295   -4.7419    3.3951 H       1  UNL1        0.0000
     16 C           2.8438    1.3159    2.0927 C.3     1  UNL1        0.0000
     17 H           3.1034    1.2697    3.1580 H       1  UNL1        0.0000
     18 H           3.7787    1.3500    1.5285 H       1  UNL1        0.0000
     19 O           2.8544   -4.9427   -0.7449 O.2     1  UNL1        0.0000
     20 C           2.5927   -6.2846   -0.9597 C.ar    1  UNL1        0.0000
     21 O           3.0742   -6.7874   -1.9621 O.2     1  UNL1        0.0000
     22 C           1.7854   -6.9559    0.0339 C.ar    1  UNL1        0.0000
     23 H           1.5445   -7.9912   -0.1778 H       1  UNL1        0.0000
     24 C           1.3820   -6.3518    1.1852 C.ar    1  UNL1        0.0000
     25 C           0.5789   -7.0942    2.2135 C.3     1  UNL1        0.0000
     26 H          -0.3655   -6.5776    2.4192 H       1  UNL1        0.0000
     27 H           0.3548   -8.1091    1.8780 H       1  UNL1        0.0000
     28 H           1.1264   -7.1554    3.1614 H       1  UNL1        0.0000
     29 C           1.9946    2.5289    1.8023 C.ar    1  UNL1        0.0000
     30 C           2.3167    3.3832    0.7400 C.ar    1  UNL1        0.0000
     31 C           0.8454    2.7981    2.5581 C.ar    1  UNL1        0.0000
     32 C           1.5095    4.4827    0.4369 C.ar    1  UNL1        0.0000
     33 C           0.0292    3.8857    2.2496 C.ar    1  UNL1        0.0000
     34 C           0.3595    4.7341    1.1888 C.ar    1  UNL1        0.0000
     35 H           3.2062    3.1873    0.1460 H       1  UNL1        0.0000
     36 H           0.5827    2.1400    3.3780 H       1  UNL1        0.0000
     37 H           1.7760    5.1364   -0.3887 H       1  UNL1        0.0000
     38 H          -0.8657    4.0690    2.8377 H       1  UNL1        0.0000
     39 H          -0.2730    5.5847    0.9515 H       1  UNL1        0.0000
@<TRIPOS>BOND
     1    21    20    2
     2    20    19   ar
     3    20    22   ar
     4    19    10   ar
     5     6     2    1
     6    37    32    1
     7    13     8    1
     8    23    22    1
     9     2     3    1
    10     1     4    1
    11    22    24   ar
    12    35    30    1
    13    10     8   ar
    14    10    12   ar
    15    32    30   ar
    16    32    34   ar
    17     8     7   ar
    18    30    29   ar
    19    39    34    1
    20    24    12   ar
    21    24    25    1
    22    34    33   ar
    23    12    11   ar
    24    18    16    1
    25     7     5    1
    26     7     9   ar
    27     3     5    1
    28     3    16    1
    29     3     4    1
    30    29    16    1
    31    29    31   ar
    32    27    25    1
    33    16    17    1
    34    25    26    1
    35    25    28    1
    36    33    31   ar
    37    33    38    1
    38    31    36    1
    39    11     9   ar
    40    11    15    1
    41     9    14    1
    42     1     2    1 
@<TRIPOS>MOLECULE
TS_4MU_phenylacetate_ZnHis3_OAc_ZnO_2829.xyz -124.324365730334
 39 42 0 0 0
SMALL
GASTEIGER

@<TRIPOS>ATOM
      1 ZN          0.0000    0.0000    0.0000 Zn      1  UNL1        0.0000
      2 O           2.0299    0.0000    0.0000 O.3     1  UNL1        0.0000
      3 C           2.1226    0.0000    1.7873 C.3     1  UNL1        0.0000
      4 O           0.9185   -0.1821    2.0976 O.3     1  UNL1        0.0000
      5 O           3.0655   -1.0403    1.9834 O.3     1  UNL1        0.0000
      6 H           2.4064    0.7870   -0.4424 H       1  UNL1        0.0000
      7 C           2.5976   -2.2793    2.3477 C.ar    1  UNL1        0.0000
      8 C           2.6613   -2.7505    3.6562 C.ar    1  UNL1        0.0000
      9 C           2.0653   -3.0775    1.3219 C.ar    1  UNL1        0.0000
     10 C           2.1395   -4.0114    3.9296 C.ar    1  UNL1        0.0000
     11 C           1.5853   -4.3439    1.6108 C.ar    1  UNL1        0.0000
     12 C           1.5997   -4.8409    2.9291 C.ar    1  UNL1        0.0000
     13 H           3.0616   -2.1412    4.4518 H       1  UNL1        0.0000
     14 H           2.0294   -2.6786    0.3146 H       1  UNL1        0.0000
     15 H           1.1729   -4.9529    0.8144 H       1  UNL1        0.0000
     16 C           2.8438    1.3159    2.0927 C.3     1  UNL1        0.0000
     17 H           2.7799    1.4417    3.1810 H       1  UNL1        0.0000
     18 H           3.9006    1.2118    1.8361 H       1  UNL1        0.0000
     19 O           2.1570   -4.3974    5.2425 O.2     1  UNL1        0.0000
     20 C           1.5676   -5.5746    5.6692 C.ar    1  UNL1        0.0000
     21 O           1.5093   -5.7576    6.8744 O.2     1  UNL1        0.0000
     22 C           1.0697   -6.4611    4.6416 C.ar    1  UNL1        0.0000
     23 H           0.6613   -7.4024    4.9906 H       1  UNL1        0.0000
     24 C           1.0694   -6.1304    3.3211 C.ar    1  UNL1        0.0000
     25 C           0.5056   -7.0604    2.2862 C.3     1  UNL1        0.0000
     26 H           1.2557   -7.2962    1.5228 H       1  UNL1        0.0000
     27 H           0.1663   -7.9935    2.7409 H       1  UNL1        0.0000
     28 H          -0.3441   -6.5965    1.7714 H       1  UNL1        0.0000
     29 C           2.2305    2.4972    1.3819 C.ar    1  UNL1        0.0000
     30 C           1.0409    3.0688    1.8512 C.ar    1  UNL1        0.0000
     31 C           2.8607    3.0720    0.2698 C.ar    1  UNL1        0.0000
     32 C           0.4914    4.1907    1.2254 C.ar    1  UNL1        0.0000
     33 C           2.3234    4.2004   -0.3484 C.ar    1  UNL1        0.0000
     34 C           1.1347    4.7630    0.1256 C.ar    1  UNL1        0.0000
     35 H           0.5403    2.6324    2.7123 H       1  UNL1        0.0000
     36 H           3.7851    2.6423   -0.0977 H       1  UNL1        0.0000
     37 H          -0.4334    4.6191    1.6010 H       1  UNL1        0.0000
     38 H           2.8348    4.6405   -1.1999 H       1  UNL1        0.0000
     39 H           0.7128    5.6388   -0.3590 H       1  UNL1        0.0000
@<TRIPOS>BOND
     1    38    33    1
     2     6     2    1
     3    39    34    1
     4    33    34   ar
     5    33    31   ar
     6    36    31    1
     7     2     3    1
     8     1     4    1
     9    34    32   ar
    10    31    29   ar
    11    14     9    1
    12    15    11    1
    13    32    37    1
    14    32    30   ar
    15     9    11   ar
    16     9     7   ar
    17    29    30   ar
    18    29    16    1
    19    26    25    1
    20    11    12   ar
    21    28    25    1
    22     3     5    1
    23     3    16    1
    24     3     4    1
    25    18    16    1
    26    30    35    1
    27     5     7    1
    28    16    17    1
    29    25    27    1
    30    25    24    1
    31     7     8   ar
    32    12    24   ar
    33    12    10   ar
    34    24    22   ar
    35     8    10   ar
    36     8    13    1
    37    10    19   ar
    38    22    23    1
    39    22    20   ar
    40    19    20   ar
    41    20    21    2
    42     1     2    1 
@<TRIPOS>MOLECULE
TS_4MU_phenylacetate_ZnHis3_OAc_ZnO_3216.xyz -124.324155353368
 39 42 0 0 0
SMALL
GASTEIGER

@<TRIPOS>ATOM
      1 ZN          0.0000    0.0000    0.0000 Zn      1  UNL1        0.0000
      2 O           2.0299    0.0000    0.0000 O.3     1  UNL1        0.0000
      3 C           2.1226    0.0000    1.7873 C.3     1  UNL1        0.0000
      4 O           0.9185   -0.1821    2.0976 O.3     1  UNL1        0.0000
      5 O           3.0655   -1.0403    1.9834 O.3     1  UNL1        0.0000
      6 H           2.4064    0.7870   -0.4424 H       1  UNL1        0.0000
      7 C           2.6639   -2.3325    1.7473 C.ar    1  UNL1        0.0000
      8 C           2.8409   -2.9603    0.5173 C.ar    1  UNL1        0.0000
      9 C           2.0319   -2.9992    2.8097 C.ar    1  UNL1        0.0000
     10 C           2.4205   -4.2803    0.3837 C.ar    1  UNL1        0.0000
     11 C           1.5885   -4.3004    2.6425 C.ar    1  UNL1        0.0000
     12 C           1.7824   -4.9809    1.4240 C.ar    1  UNL1        0.0000
     13 H           3.3322   -2.4584   -0.3020 H       1  UNL1        0.0000
     14 H           1.9120   -2.4811    3.7543 H       1  UNL1        0.0000
     15 H           1.1045   -4.8096    3.4680 H       1  UNL1        0.0000
     16 C           2.8438    1.3159    2.0927 C.3     1  UNL1        0.0000
     17 H           2.8439    1.4054    3.1865 H       1  UNL1        0.0000
     18 H           3.8845    1.2360    1.7701 H       1  UNL1        0.0000
     19 O           2.6853   -4.8766   -0.8194 O.2     1  UNL1        0.0000
     20 C           2.4255   -6.2167   -1.0471 C.ar    1  UNL1        0.0000
     21 O           2.8300   -6.6867   -2.0982 O.2     1  UNL1        0.0000
     22 C           1.7121   -6.9254   -0.0086 C.ar    1  UNL1        0.0000
     23 H           1.4690   -7.9588   -0.2268 H       1  UNL1        0.0000
     24 C           1.3963   -6.3566    1.1872 C.ar    1  UNL1        0.0000
     25 C           0.6909   -7.1372    2.2580 C.3     1  UNL1        0.0000
     26 H          -0.2406   -6.6410    2.5537 H       1  UNL1        0.0000
     27 H           0.4540   -8.1468    1.9157 H       1  UNL1        0.0000
     28 H           1.3152   -7.2131    3.1561 H       1  UNL1        0.0000
     29 C           2.1736    2.5104    1.4595 C.ar    1  UNL1        0.0000
     30 C           0.8954    2.9084    1.8715 C.ar    1  UNL1        0.0000
     31 C           2.8330    3.2693    0.4830 C.ar    1  UNL1        0.0000
     32 C           0.2873    4.0400    1.3220 C.ar    1  UNL1        0.0000
     33 C           2.2357    4.4076   -0.0571 C.ar    1  UNL1        0.0000
     34 C           0.9589    4.7963    0.3586 C.ar    1  UNL1        0.0000
     35 H           0.3714    2.3281    2.6272 H       1  UNL1        0.0000
     36 H           3.8250    2.9746    0.1616 H       1  UNL1        0.0000
     37 H          -0.7057    4.3324    1.6512 H       1  UNL1        0.0000
     38 H           2.7692    4.9915   -0.8019 H       1  UNL1        0.0000
     39 H           0.4909    5.6799   -0.0658 H       1  UNL1        0.0000
@<TRIPOS>BOND
     1    21    20    2
     2    20    19   ar
     3    20    22   ar
     4    19    10   ar
     5    38    33    1
     6     6     2    1
     7    13     8    1
     8    23    22    1
     9    39    34    1
    10    33    34   ar
    11    33    31   ar
    12    22    24   ar
    13     1     4    1
    14     2     3    1
    15    36    31    1
    16    34    32   ar
    17    10     8   ar
    18    10    12   ar
    19    31    29   ar
    20     8     7   ar
    21    24    12   ar
    22    24    25    1
    23    32    37    1
    24    32    30   ar
    25    12    11   ar
    26    29    30   ar
    27    29    16    1
    28     7     5    1
    29     7     9   ar
    30    18    16    1
    31     3     5    1
    32     3    16    1
    33     3     4    1
    34    30    35    1
    35    27    25    1
    36    16    17    1
    37    25    26    1
    38    25    28    1
    39    11     9   ar
    40    11    15    1
    41     9    14    1
    42     1     2    1 
@<TRIPOS>MOLECULE
TS_4MU_phenylacetate_ZnHis3_OAc_ZnO_3942.xyz -124.323913199566
 39 42 0 0 0
SMALL
GASTEIGER

@<TRIPOS>ATOM
      1 ZN          0.0000    0.0000    0.0000 Zn      1  UNL1        0.0000
      2 O           2.0299    0.0000    0.0000 O.3     1  UNL1        0.0000
      3 C           2.1226    0.0000    1.7873 C.3     1  UNL1        0.0000
      4 O           0.9185   -0.1821    2.0976 O.3     1  UNL1        0.0000
      5 O           3.0655   -1.0403    1.9834 O.3     1  UNL1        0.0000
      6 H           2.4064    0.7870   -0.4424 H       1  UNL1        0.0000
      7 C           2.6372   -2.1988    2.5844 C.ar    1  UNL1        0.0000
      8 C           1.7661   -2.2030    3.6704 C.ar    1  UNL1        0.0000
      9 C           3.1437   -3.4015    2.0651 C.ar    1  UNL1        0.0000
     10 C           1.3722   -3.4303    4.1955 C.ar    1  UNL1        0.0000
     11 C           2.7666   -4.6096    2.6273 C.ar    1  UNL1        0.0000
     12 C           1.8588   -4.6557    3.7038 C.ar    1  UNL1        0.0000
     13 H           1.3661   -1.2843    4.0709 H       1  UNL1        0.0000
     14 H           3.8185   -3.3617    1.2178 H       1  UNL1        0.0000
     15 H           3.1590   -5.5339    2.2190 H       1  UNL1        0.0000
     16 C           2.8438    1.3159    2.0927 C.3     1  UNL1        0.0000
     17 H           2.7958    1.4325    3.1829 H       1  UNL1        0.0000
     18 H           3.8970    1.2177    1.8194 H       1  UNL1        0.0000
     19 O           0.4570   -3.3832    5.2120 O.2     1  UNL1        0.0000
     20 C          -0.1052   -4.5290    5.7469 C.ar    1  UNL1        0.0000
     21 O          -1.0152   -4.3765    6.5456 O.2     1  UNL1        0.0000
     22 C           0.4360   -5.7904    5.2934 C.ar    1  UNL1        0.0000
     23 H           0.0221   -6.6753    5.7628 H       1  UNL1        0.0000
     24 C           1.3749   -5.8781    4.3116 C.ar    1  UNL1        0.0000
     25 C           1.8833   -7.2088    3.8377 C.3     1  UNL1        0.0000
     26 H           2.9731   -7.2688    3.9380 H       1  UNL1        0.0000
     27 H           1.4357   -8.0253    4.4083 H       1  UNL1        0.0000
     28 H           1.6482   -7.3572    2.7772 H       1  UNL1        0.0000
     29 C           2.2158    2.5008    1.4009 C.ar    1  UNL1        0.0000
     30 C           2.8521    3.1044    0.3087 C.ar    1  UNL1        0.0000
     31 C           0.9668    2.9899    1.8071 C.ar    1  UNL1        0.0000
     32 C           2.2553    4.1730   -0.3653 C.ar    1  UNL1        0.0000
     33 C           0.3611    4.0464    1.1280 C.ar    1  UNL1        0.0000
     34 C           1.0043    4.6440    0.0402 C.ar    1  UNL1        0.0000
     35 H           3.8222    2.7362   -0.0165 H       1  UNL1        0.0000
     36 H           0.4623    2.5262    2.6465 H       1  UNL1        0.0000
     37 H           2.7643    4.6309   -1.2084 H       1  UNL1        0.0000
     38 H          -0.6143    4.4015    1.4485 H       1  UNL1        0.0000
     39 H           0.5354    5.4707   -0.4858 H       1  UNL1        0.0000
@<TRIPOS>BOND
     1    37    32    1
     2    39    34    1
     3     6     2    1
     4    32    34   ar
     5    32    30   ar
     6    35    30    1
     7     2     3    1
     8     1     4    1
     9    34    33   ar
    10    30    29   ar
    11    33    38    1
    12    33    31   ar
    13    14     9    1
    14    29    31   ar
    15    29    16    1
    16     3     5    1
    17     3    16    1
    18     3     4    1
    19    31    36    1
    20    18    16    1
    21     5     7    1
    22     9     7   ar
    23     9    11   ar
    24    16    17    1
    25    15    11    1
    26     7     8   ar
    27    11    12   ar
    28    28    25    1
    29     8    13    1
    30     8    10   ar
    31    12    10   ar
    32    12    24   ar
    33    25    26    1
    34    25    24    1
    35    25    27    1
    36    10    19   ar
    37    24    22   ar
    38    19    20   ar
    39    22    20   ar
    40    22    23    1
    41    20    21    2
    42     1     2    1 
@<TRIPOS>MOLECULE
TS_4MU_phenylacetate_ZnHis3_OAc_ZnO_2484.xyz -124.322787750447
 39 42 0 0 0
SMALL
GASTEIGER

@<TRIPOS>ATOM
      1 ZN          0.0000    0.0000    0.0000 Zn      1  UNL1        0.0000
      2 O           2.0299    0.0000    0.0000 O.3     1  UNL1        0.0000
      3 C           2.1226    0.0000    1.7873 C.3     1  UNL1        0.0000
      4 O           0.9185   -0.1821    2.0976 O.3     1  UNL1        0.0000
      5 O           3.0655   -1.0403    1.9834 O.3     1  UNL1        0.0000
      6 H           2.4064    0.7870   -0.4424 H       1  UNL1        0.0000
      7 C           2.6521   -2.3355    1.7877 C.ar    1  UNL1        0.0000
      8 C           3.2473   -3.1802    0.8548 C.ar    1  UNL1        0.0000
      9 C           1.5668   -2.7738    2.5640 C.ar    1  UNL1        0.0000
     10 C           2.7715   -4.4837    0.7468 C.ar    1  UNL1        0.0000
     11 C           1.0861   -4.0637    2.4135 C.ar    1  UNL1        0.0000
     12 C           1.6858   -4.9589    1.5055 C.ar    1  UNL1        0.0000
     13 H           4.0864   -2.8545    0.2596 H       1  UNL1        0.0000
     14 H           1.1283   -2.0904    3.2822 H       1  UNL1        0.0000
     15 H           0.2502   -4.3959    3.0184 H       1  UNL1        0.0000
     16 C           2.8438    1.3159    2.0927 C.3     1  UNL1        0.0000
     17 H           3.0873    1.2776    3.1621 H       1  UNL1        0.0000
     18 H           3.7872    1.3422    1.5423 H       1  UNL1        0.0000
     19 O           3.4385   -5.2963   -0.1295 O.2     1  UNL1        0.0000
     20 C           3.1444   -6.6432   -0.2503 C.ar    1  UNL1        0.0000
     21 O           3.8895   -7.3105   -0.9496 O.2     1  UNL1        0.0000
     22 C           1.9905   -7.1235    0.4759 C.ar    1  UNL1        0.0000
     23 H           1.7426   -8.1679    0.3264 H       1  UNL1        0.0000
     24 C           1.2772   -6.3370    1.3278 C.ar    1  UNL1        0.0000
     25 C           0.1090   -6.8826    2.0968 C.3     1  UNL1        0.0000
     26 H          -0.7981   -6.3022    1.8931 H       1  UNL1        0.0000
     27 H          -0.0794   -7.9261    1.8356 H       1  UNL1        0.0000
     28 H           0.2945   -6.8232    3.1757 H       1  UNL1        0.0000
     29 C           2.0033    2.5294    1.7797 C.ar    1  UNL1        0.0000
     30 C           2.5034    3.5461    0.9562 C.ar    1  UNL1        0.0000
     31 C           0.6942    2.6409    2.2675 C.ar    1  UNL1        0.0000
     32 C           1.7146    4.6508    0.6250 C.ar    1  UNL1        0.0000
     33 C          -0.1013    3.7344    1.9274 C.ar    1  UNL1        0.0000
     34 C           0.4068    4.7454    1.1065 C.ar    1  UNL1        0.0000
     35 H           3.5180    3.4734    0.5716 H       1  UNL1        0.0000
     36 H           0.2945    1.8570    2.8999 H       1  UNL1        0.0000
     37 H           2.1197    5.4314   -0.0125 H       1  UNL1        0.0000
     38 H          -1.1188    3.7953    2.3032 H       1  UNL1        0.0000
     39 H          -0.2106    5.6002    0.8457 H       1  UNL1        0.0000
@<TRIPOS>BOND
     1    21    20    2
     2     6     2    1
     3    20    19   ar
     4    20    22   ar
     5    19    10   ar
     6    37    32    1
     7     2     3    1
     8     1     4    1
     9    13     8    1
    10    23    22    1
    11    22    24   ar
    12    35    30    1
    13    32    30   ar
    14    32    34   ar
    15    10     8   ar
    16    10    12   ar
    17    39    34    1
    18     8     7   ar
    19    30    29   ar
    20    34    33   ar
    21    24    12   ar
    22    24    25    1
    23    12    11   ar
    24    18    16    1
    25    29    16    1
    26    29    31   ar
    27     3     5    1
    28     3    16    1
    29     3     4    1
    30     7     5    1
    31     7     9   ar
    32    27    25    1
    33    26    25    1
    34    33    31   ar
    35    33    38    1
    36    16    17    1
    37    25    28    1
    38    31    36    1
    39    11     9   ar
    40    11    15    1
    41     9    14    1
    42     1     2    1 
