@<TRIPOS>MOLECULE
TS_4MU_phenylacetate_ZnHis3_OAc_2MeOH_ENANTIOMER_TS_0.xyz -140.797828926413
 39 41 0 0 0
SMALL
GASTEIGER

@<TRIPOS>ATOM
      1 ZN          1.1242   -1.5915   -0.0596 Zn      1  UNL1        0.0000
      2 O           0.6870    0.3544   -0.0656 O.3     2  UNL2        0.0000
      3 C           0.7080    1.7224   -1.1445 C.3     2  UNL2        0.0000
      4 O           0.3998    2.7059   -0.4273 O.3     2  UNL2        0.0000
      5 O          -0.2447    1.2518   -2.1150 O.3     2  UNL2        0.0000
      6 H           0.9456    0.7428    0.8009 H       2  UNL2        0.0000
      7 C          -1.5554    1.1686   -1.7129 C.ar    2  UNL2        0.0000
      8 C          -2.1080   -0.1041   -1.6295 C.ar    2  UNL2        0.0000
      9 C          -2.3215    2.3034   -1.3998 C.ar    2  UNL2        0.0000
     10 C          -3.4061   -0.2433   -1.1542 C.ar    2  UNL2        0.0000
     11 C          -3.6212    2.1426   -0.9431 C.ar    2  UNL2        0.0000
     12 C          -4.1907    0.8629   -0.7846 C.ar    2  UNL2        0.0000
     13 H          -1.5201   -0.9743   -1.8841 H       2  UNL2        0.0000
     14 H          -1.8838    3.2865   -1.5034 H       2  UNL2        0.0000
     15 H          -4.2036    3.0197   -0.6846 H       2  UNL2        0.0000
     16 C           2.0702    1.6384   -1.8364 C.3     2  UNL2        0.0000
     17 H           2.0528    0.8084   -2.5435 H       2  UNL2        0.0000
     18 H           2.1471    2.5604   -2.4275 H       2  UNL2        0.0000
     19 O          -3.8677   -1.5221   -1.0163 O.2     2  UNL2        0.0000
     20 C          -5.0565   -1.8072   -0.3804 C.ar    2  UNL2        0.0000
     21 O          -5.2769   -2.9895   -0.1419 O.2     2  UNL2        0.0000
     22 C          -5.9043   -0.6858   -0.0570 C.ar    2  UNL2        0.0000
     23 H          -6.8644   -0.9284    0.3829 H       2  UNL2        0.0000
     24 C          -5.5094    0.6066   -0.2391 C.ar    2  UNL2        0.0000
     25 C          -6.3979    1.7524    0.1480 C.3     2  UNL2        0.0000
     26 H          -6.5912    2.4020   -0.7133 H       2  UNL2        0.0000
     27 H          -7.3537    1.3946    0.5363 H       2  UNL2        0.0000
     28 H          -5.9193    2.3701    0.9169 H       2  UNL2        0.0000
     29 C           3.2674    1.4956   -0.9264 C.ar    2  UNL2        0.0000
     30 C           4.1163    0.3912   -1.0832 C.ar    2  UNL2        0.0000
     31 C           3.5877    2.4557    0.0448 C.ar    2  UNL2        0.0000
     32 C           5.2587    0.2436   -0.2951 C.ar    2  UNL2        0.0000
     33 C           4.7266    2.3038    0.8400 C.ar    2  UNL2        0.0000
     34 C           5.5678    1.2011    0.6722 C.ar    2  UNL2        0.0000
     35 H           3.8792   -0.3578   -1.8333 H       2  UNL2        0.0000
     36 H           2.9614    3.3322    0.1708 H       2  UNL2        0.0000
     37 H           5.9013   -0.6211   -0.4344 H       2  UNL2        0.0000
     38 H           4.9615    3.0572    1.5869 H       2  UNL2        0.0000
     39 H           6.4536    1.0891    1.2907 H       2  UNL2        0.0000
@<TRIPOS>BOND
     1    17    16    1
     2    18    16    1
     3     5     7    1
     4     5     3    1
     5    13     8    1
     6    16     3    1
     7    16    29    1
     8    35    30    1
     9     7     8   ar
    10     7     9   ar
    11     8    10   ar
    12    14     9    1
    13     9    11   ar
    14    10    19   ar
    15    10    12   ar
    16     3     4    1
    17     3     2    1
    18    30    29   ar
    19    30    32   ar
    20    19    20   ar
    21    11    12   ar
    22    11    15    1
    23    29    31   ar
    24    12    24   ar
    25    26    25    1
    26    37    32    1
    27    20    21    2
    28    20    22   ar
    29    32    34   ar
    30    24    22   ar
    31    24    25    1
    32     2     6    1
    33    22    23    1
    34    31    36    1
    35    31    33   ar
    36    25    27    1
    37    25    28    1
    38    34    33   ar
    39    34    39    1
    40    33    38    1
    41     1     2    1
@<TRIPOS>MOLECULE
TS_4MU_phenylacetate_ZnHis3_OAc_2MeOH_ENANTIOMER_TS_7656.xyz -140.789780025947
 39 41 0 0 0
SMALL
GASTEIGER

@<TRIPOS>ATOM
      1 ZN          0.0000    0.0000    0.0000 Zn      1  UNL1        0.0000
      2 O           1.9944    0.0000    0.0000 O.3     2  UNL2        0.0000
      3 C           3.3278    0.0000    1.1216 C.3     2  UNL2        0.0000
      4 O           4.3527    0.1243    0.4070 O.3     2  UNL2        0.0000
      5 O           3.0803   -1.2671    1.7575 O.3     2  UNL2        0.0000
      6 H           2.3140    0.5711   -0.7349 H       2  UNL2        0.0000
      7 C           3.8044   -2.3434    1.3062 C.ar    2  UNL2        0.0000
      8 C           5.1793   -2.3053    1.5073 C.ar    2  UNL2        0.0000
      9 C           3.2051   -3.4401    0.6652 C.ar    2  UNL2        0.0000
     10 C           5.9435   -3.4049    1.1367 C.ar    2  UNL2        0.0000
     11 C           3.9892   -4.5203    0.2883 C.ar    2  UNL2        0.0000
     12 C           5.3766   -4.5424    0.5361 C.ar    2  UNL2        0.0000
     13 H           5.6391   -1.4541    1.9885 H       2  UNL2        0.0000
     14 H           2.1386   -3.4356    0.4879 H       2  UNL2        0.0000
     15 H           3.5204   -5.3731   -0.1894 H       2  UNL2        0.0000
     16 C           2.9492    1.0582    2.1601 C.3     2  UNL2        0.0000
     17 H           2.0498    0.7300    2.6823 H       2  UNL2        0.0000
     18 H           3.7670    1.0444    2.8924 H       2  UNL2        0.0000
     19 O           7.2761   -3.3449    1.4329 O.2     2  UNL2        0.0000
     20 C           8.1067   -4.4359    1.2959 C.ar    2  UNL2        0.0000
     21 O           9.2317   -4.3272    1.7712 O.2     2  UNL2        0.0000
     22 C           7.5599   -5.5865    0.6192 C.ar    2  UNL2        0.0000
     23 H           8.2432   -6.4123    0.4600 H       2  UNL2        0.0000
     24 C           6.2503   -5.6625    0.2471 C.ar    2  UNL2        0.0000
     25 C           5.7012   -6.8914   -0.4166 C.3     2  UNL2        0.0000
     26 H           5.2606   -6.6435   -1.3890 H       2  UNL2        0.0000
     27 H           6.4830   -7.6385   -0.5686 H       2  UNL2        0.0000
     28 H           4.9069   -7.3379    0.1930 H       2  UNL2        0.0000
     29 C           2.7389    2.4581    1.6327 C.ar    2  UNL2        0.0000
     30 C           1.8794    3.3252    2.3215 C.ar    2  UNL2        0.0000
     31 C           3.4101    2.9390    0.4988 C.ar    2  UNL2        0.0000
     32 C           1.6915    4.6410    1.8958 C.ar    2  UNL2        0.0000
     33 C           3.2157    4.2536    0.0671 C.ar    2  UNL2        0.0000
     34 C           2.3597    5.1105    0.7639 C.ar    2  UNL2        0.0000
     35 H           1.3556    2.9642    3.2019 H       2  UNL2        0.0000
     36 H           4.0993    2.2967   -0.0387 H       2  UNL2        0.0000
     37 H           1.0200    5.2945    2.4454 H       2  UNL2        0.0000
     38 H           3.7443    4.6112   -0.8123 H       2  UNL2        0.0000
     39 H           2.2142    6.1324    0.4261 H       2  UNL2        0.0000
@<TRIPOS>BOND
     1    26    25    1
     2    38    33    1
     3     6     2    1
     4    27    25    1
     5    25    28    1
     6    25    24    1
     7    15    11    1
     8    36    31    1
     9     2     3    1
    10    33    31   ar
    11    33    34   ar
    12    24    12   ar
    13    24    22   ar
    14    11    12   ar
    15    11     9   ar
    16     4     3    1
    17    39    34    1
    18    23    22    1
    19    14     9    1
    20    31    29   ar
    21    12    10   ar
    22    22    20   ar
    23     9     7   ar
    24    34    32   ar
    25     3     5    1
    26     3    16    1
    27    10    19   ar
    28    10     8   ar
    29    20    19   ar
    30    20    21    2
    31     7     8   ar
    32     7     5    1
    33     8    13    1
    34    29    16    1
    35    29    30   ar
    36    32    30   ar
    37    32    37    1
    38    16    17    1
    39    16    18    1
    40    30    35    1
    41     1     2    1
@<TRIPOS>MOLECULE
TS_4MU_phenylacetate_ZnHis3_OAc_2MeOH_ENANTIOMER_TS_4236.xyz -140.788514794278
 39 41 0 0 0
SMALL
GASTEIGER

@<TRIPOS>ATOM
      1 ZN          0.0000    0.0000    0.0000 Zn      1  UNL1        0.0000
      2 O           1.9944    0.0000    0.0000 O.3     2  UNL2        0.0000
      3 C           3.3278    0.0000    1.1216 C.3     2  UNL2        0.0000
      4 O           4.3527    0.1243    0.4070 O.3     2  UNL2        0.0000
      5 O           3.0803   -1.2671    1.7575 O.3     2  UNL2        0.0000
      6 H           2.3140    0.5711   -0.7349 H       2  UNL2        0.0000
      7 C           4.0233   -2.2495    1.5784 C.ar    2  UNL2        0.0000
      8 C           5.2888   -2.0092    2.1007 C.ar    2  UNL2        0.0000
      9 C           3.7450   -3.4470    0.8993 C.ar    2  UNL2        0.0000
     10 C           6.2532   -3.0054    2.0112 C.ar    2  UNL2        0.0000
     11 C           4.7276   -4.4216    0.8069 C.ar    2  UNL2        0.0000
     12 C           6.0012   -4.2369    1.3820 C.ar    2  UNL2        0.0000
     13 H           5.5037   -1.0812    2.6109 H       2  UNL2        0.0000
     14 H           2.7644   -3.6008    0.4709 H       2  UNL2        0.0000
     15 H           4.5035   -5.3522    0.2982 H       2  UNL2        0.0000
     16 C           2.9492    1.0582    2.1601 C.3     2  UNL2        0.0000
     17 H           2.1390    0.6686    2.7774 H       2  UNL2        0.0000
     18 H           3.8302    1.1490    2.8089 H       2  UNL2        0.0000
     19 O           7.4518   -2.7452    2.6136 O.2     2  UNL2        0.0000
     20 C           8.4207   -3.7132    2.7654 C.ar    2  UNL2        0.0000
     21 O           9.3692   -3.4261    3.4874 O.2     2  UNL2        0.0000
     22 C           8.2086   -4.9582    2.0685 C.ar    2  UNL2        0.0000
     23 H           9.0082   -5.6856    2.1428 H       2  UNL2        0.0000
     24 C           7.0529   -5.2344    1.3994 C.ar    2  UNL2        0.0000
     25 C           6.8453   -6.5566    0.7205 C.3     2  UNL2        0.0000
     26 H           6.6328   -6.4165   -0.3455 H       2  UNL2        0.0000
     27 H           7.7278   -7.1920    0.8195 H       2  UNL2        0.0000
     28 H           5.9870   -7.0831    1.1540 H       2  UNL2        0.0000
     29 C           2.5564    2.4109    1.6143 C.ar    2  UNL2        0.0000
     30 C           3.5199    3.1875    0.9558 C.ar    2  UNL2        0.0000
     31 C           1.2453    2.9015    1.7032 C.ar    2  UNL2        0.0000
     32 C           3.1896    4.4226    0.3962 C.ar    2  UNL2        0.0000
     33 C           0.9160    4.1420    1.1507 C.ar    2  UNL2        0.0000
     34 C           1.8836    4.9057    0.4930 C.ar    2  UNL2        0.0000
     35 H           4.5381    2.8169    0.8794 H       2  UNL2        0.0000
     36 H           0.4747    2.3104    2.1860 H       2  UNL2        0.0000
     37 H           3.9534    5.0069   -0.1088 H       2  UNL2        0.0000
     38 H          -0.1046    4.5071    1.2269 H       2  UNL2        0.0000
     39 H           1.6221    5.8679    0.0625 H       2  UNL2        0.0000
@<TRIPOS>BOND
     1     6     2    1
     2    26    25    1
     3    37    32    1
     4     2     3    1
     5    39    34    1
     6    15    11    1
     7    32    34   ar
     8    32    30   ar
     9     4     3    1
    10    14     9    1
    11    34    33   ar
    12    25    27    1
    13    25    28    1
    14    25    24    1
    15    11     9   ar
    16    11    12   ar
    17    35    30    1
    18     9     7   ar
    19    30    29   ar
    20     3     5    1
    21     3    16    1
    22    33    38    1
    23    33    31   ar
    24    12    24   ar
    25    12    10   ar
    26    24    22   ar
    27     7     5    1
    28     7     8   ar
    29    29    31   ar
    30    29    16    1
    31    31    36    1
    32    10     8   ar
    33    10    19   ar
    34    22    23    1
    35    22    20   ar
    36     8    13    1
    37    16    17    1
    38    16    18    1
    39    19    20   ar
    40    20    21    2
    41     1     2    1
@<TRIPOS>MOLECULE
TS_4MU_phenylacetate_ZnHis3_OAc_2MeOH_ENANTIOMER_TS_10846.xyz -140.787333193458
 39 41 0 0 0
SMALL
GASTEIGER

@<TRIPOS>ATOM
      1 ZN          0.0000    0.0000    0.0000 Zn      1  UNL1        0.0000
      2 O           1.9944    0.0000    0.0000 O.3     2  UNL2        0.0000
      3 C           3.3278    0.0000    1.1216 C.3     2  UNL2        0.0000
      4 O           4.3527    0.1243    0.4070 O.3     2  UNL2        0.0000
      5 O           3.0803   -1.2671    1.7575 O.3     2  UNL2        0.0000
      6 H           2.3140    0.5711   -0.7349 H       2  UNL2        0.0000
      7 C           3.6402   -2.3775    1.1744 C.ar    2  UNL2        0.0000
      8 C           2.8034   -3.1685    0.3958 C.ar    2  UNL2        0.0000
      9 C           4.9916   -2.7191    1.3464 C.ar    2  UNL2        0.0000
     10 C           3.3424   -4.2588   -0.2757 C.ar    2  UNL2        0.0000
     11 C           5.5054   -3.8216    0.6800 C.ar    2  UNL2        0.0000
     12 C           4.7000   -4.6074   -0.1690 C.ar    2  UNL2        0.0000
     13 H           1.7609   -2.9106    0.2763 H       2  UNL2        0.0000
     14 H           5.6180   -2.1099    1.9831 H       2  UNL2        0.0000
     15 H           6.5534   -4.0716    0.8004 H       2  UNL2        0.0000
     16 C           2.9492    1.0582    2.1601 C.3     2  UNL2        0.0000
     17 H           1.9327    0.8633    2.5038 H       2  UNL2        0.0000
     18 H           3.6159    0.8726    3.0124 H       2  UNL2        0.0000
     19 O           2.4911   -4.9509   -1.0904 O.2     2  UNL2        0.0000
     20 C           2.9363   -5.9272   -1.9549 C.ar    2  UNL2        0.0000
     21 O           2.1227   -6.3433   -2.7724 O.2     2  UNL2        0.0000
     22 C           4.3096   -6.3443   -1.8105 C.ar    2  UNL2        0.0000
     23 H           4.6281   -7.1578   -2.4515 H       2  UNL2        0.0000
     24 C           5.1773   -5.7236   -0.9613 C.ar    2  UNL2        0.0000
     25 C           6.6120   -6.1534   -0.8655 C.3     2  UNL2        0.0000
     26 H           6.8656   -6.4333    0.1633 H       2  UNL2        0.0000
     27 H           6.8111   -7.0062   -1.5179 H       2  UNL2        0.0000
     28 H           7.2811   -5.3332   -1.1510 H       2  UNL2        0.0000
     29 C           3.0583    2.4962    1.7104 C.ar    2  UNL2        0.0000
     30 C           2.9559    3.5192    2.6632 C.ar    2  UNL2        0.0000
     31 C           3.3045    2.8455    0.3744 C.ar    2  UNL2        0.0000
     32 C           3.0965    4.8591    2.2990 C.ar    2  UNL2        0.0000
     33 C           3.4366    4.1874    0.0077 C.ar    2  UNL2        0.0000
     34 C           3.3368    5.1986    0.9666 C.ar    2  UNL2        0.0000
     35 H           2.7670    3.2604    3.7011 H       2  UNL2        0.0000
     36 H           3.4122    2.0728   -0.3791 H       2  UNL2        0.0000
     37 H           3.0126    5.6347    3.0550 H       2  UNL2        0.0000
     38 H           3.6286    4.4412   -1.0313 H       2  UNL2        0.0000
     39 H           3.4432    6.2400    0.6772 H       2  UNL2        0.0000
@<TRIPOS>BOND
     1    21    20    2
     2    23    22    1
     3    20    22   ar
     4    20    19   ar
     5    22    24   ar
     6    27    25    1
     7    28    25    1
     8    19    10   ar
     9    38    33    1
    10    24    25    1
    11    24    12   ar
    12    25    26    1
    13     6     2    1
    14    36    31    1
    15    10    12   ar
    16    10     8   ar
    17    12    11   ar
    18     2     3    1
    19    33    31   ar
    20    33    34   ar
    21    13     8    1
    22    31    29   ar
    23     8     7   ar
    24     4     3    1
    25    39    34    1
    26    11    15    1
    27    11     9   ar
    28    34    32   ar
    29     3     5    1
    30     3    16    1
    31     7     9   ar
    32     7     5    1
    33     9    14    1
    34    29    16    1
    35    29    30   ar
    36    16    17    1
    37    16    18    1
    38    32    30   ar
    39    32    37    1
    40    30    35    1
    41     1     2    1
@<TRIPOS>MOLECULE
TS_4MU_phenylacetate_ZnHis3_OAc_2MeOH_ENANTIOMER_TS_558.xyz -140.787260072826
 39 41 0 0 0
SMALL
GASTEIGER

@<TRIPOS>ATOM
      1 ZN          0.0000    0.0000    0.0000 Zn      1  UNL1        0.0000
      2 O           1.9944    0.0000    0.0000 O.3     2  UNL2        0.0000
      3 C           3.3278    0.0000    1.1216 C.3     2  UNL2        0.0000
      4 O           4.3527    0.1243    0.4070 O.3     2  UNL2        0.0000
      5 O           3.0803   -1.2671    1.7575 O.3     2  UNL2        0.0000
      6 H           2.3140    0.5711   -0.7349 H       2  UNL2        0.0000
      7 C           3.3576   -2.3964    1.0266 C.ar    2  UNL2        0.0000
      8 C           4.6963   -2.7460    0.8928 C.ar    2  UNL2        0.0000
      9 C           2.3518   -3.1745    0.4302 C.ar    2  UNL2        0.0000
     10 C           5.0206   -3.9218    0.2274 C.ar    2  UNL2        0.0000
     11 C           2.6991   -4.3358   -0.2439 C.ar    2  UNL2        0.0000
     12 C           4.0416   -4.7540   -0.3425 C.ar    2  UNL2        0.0000
     13 H           5.4687   -2.1379    1.3414 H       2  UNL2        0.0000
     14 H           1.3190   -2.8673    0.5173 H       2  UNL2        0.0000
     15 H           1.9186   -4.9438   -0.6871 H       2  UNL2        0.0000
     16 C           2.9492    1.0582    2.1601 C.3     2  UNL2        0.0000
     17 H           1.8652    1.0592    2.2795 H       2  UNL2        0.0000
     18 H           3.3745    0.6954    3.1050 H       2  UNL2        0.0000
     19 O           6.3452   -4.2564    0.1979 O.2     2  UNL2        0.0000
     20 C           6.7812   -5.4818   -0.2573 C.ar    2  UNL2        0.0000
     21 O           7.9613   -5.7484   -0.0585 O.2     2  UNL2        0.0000
     22 C           5.8018   -6.3182   -0.9069 C.ar    2  UNL2        0.0000
     23 H           6.1718   -7.2500   -1.3182 H       2  UNL2        0.0000
     24 C           4.4789   -5.9915   -0.9580 C.ar    2  UNL2        0.0000
     25 C           3.4776   -6.9041   -1.6034 C.3     2  UNL2        0.0000
     26 H           2.9410   -6.3859   -2.4064 H       2  UNL2        0.0000
     27 H           3.9639   -7.7874   -2.0226 H       2  UNL2        0.0000
     28 H           2.7277   -7.2328   -0.8742 H       2  UNL2        0.0000
     29 C           3.4226    2.4642    1.8758 C.ar    2  UNL2        0.0000
     30 C           3.5112    2.8991    0.5461 C.ar    2  UNL2        0.0000
     31 C           3.7358    3.3697    2.9003 C.ar    2  UNL2        0.0000
     32 C           3.8998    4.2040    0.2397 C.ar    2  UNL2        0.0000
     33 C           4.1333    4.6737    2.5939 C.ar    2  UNL2        0.0000
     34 C           4.2140    5.0976    1.2649 C.ar    2  UNL2        0.0000
     35 H           3.2695    2.2071   -0.2555 H       2  UNL2        0.0000
     36 H           3.6525    3.0667    3.9384 H       2  UNL2        0.0000
     37 H           3.9616    4.5182   -0.7983 H       2  UNL2        0.0000
     38 H           4.3710    5.3633    3.3992 H       2  UNL2        0.0000
     39 H           4.5206    6.1131    1.0319 H       2  UNL2        0.0000
@<TRIPOS>BOND
     1    26    25    1
     2    27    25    1
     3    25    24    1
     4    25    28    1
     5    23    22    1
     6    24    22   ar
     7    24    12   ar
     8    22    20   ar
     9    37    32    1
    10     6     2    1
    11    15    11    1
    12    12    11   ar
    13    12    10   ar
    14    20    21    2
    15    20    19   ar
    16    35    30    1
    17    11     9   ar
    18     2     3    1
    19    19    10   ar
    20    10     8   ar
    21    32    30   ar
    22    32    34   ar
    23     4     3    1
    24     9    14    1
    25     9     7   ar
    26    30    29   ar
    27     8     7   ar
    28     8    13    1
    29     7     5    1
    30    39    34    1
    31     3     5    1
    32     3    16    1
    33    34    33   ar
    34    29    16    1
    35    29    31   ar
    36    16    17    1
    37    16    18    1
    38    33    31   ar
    39    33    38    1
    40    31    36    1
    41     1     2    1
@<TRIPOS>MOLECULE
TS_4MU_phenylacetate_ZnHis3_OAc_2MeOH_ENANTIOMER_TS_10368.xyz -140.787105701315
 39 41 0 0 0
SMALL
GASTEIGER

@<TRIPOS>ATOM
      1 ZN          0.0000    0.0000    0.0000 Zn      1  UNL1        0.0000
      2 O           1.9944    0.0000    0.0000 O.3     2  UNL2        0.0000
      3 C           3.3278    0.0000    1.1216 C.3     2  UNL2        0.0000
      4 O           4.3527    0.1243    0.4070 O.3     2  UNL2        0.0000
      5 O           3.0803   -1.2671    1.7575 O.3     2  UNL2        0.0000
      6 H           2.3140    0.5711   -0.7349 H       2  UNL2        0.0000
      7 C           3.4749   -2.3936    1.0779 C.ar    2  UNL2        0.0000
      8 C           4.7659   -2.8511    1.3150 C.ar    2  UNL2        0.0000
      9 C           2.6316   -3.0655    0.1780 C.ar    2  UNL2        0.0000
     10 C           5.1830   -4.0298    0.7092 C.ar    2  UNL2        0.0000
     11 C           3.0742   -4.2315   -0.4289 C.ar    2  UNL2        0.0000
     12 C           4.3536   -4.7588   -0.1607 C.ar    2  UNL2        0.0000
     13 H           5.4171   -2.3243    1.9977 H       2  UNL2        0.0000
     14 H           1.6429   -2.6746   -0.0184 H       2  UNL2        0.0000
     15 H           2.4138   -4.7577   -1.1088 H       2  UNL2        0.0000
     16 C           2.9492    1.0582    2.1601 C.3     2  UNL2        0.0000
     17 H           2.0926    0.6978    2.7307 H       2  UNL2        0.0000
     18 H           3.8009    1.0963    2.8519 H       2  UNL2        0.0000
     19 O           6.4314   -4.4745    1.0428 O.2     2  UNL2        0.0000
     20 C           6.8906   -5.7183    0.6673 C.ar    2  UNL2        0.0000
     21 O           7.9398   -6.0897    1.1815 O.2     2  UNL2        0.0000
     22 C           6.0836   -6.4490   -0.2791 C.ar    2  UNL2        0.0000
     23 H           6.4884   -7.3961   -0.6159 H       2  UNL2        0.0000
     24 C           4.8597   -6.0100   -0.6897 C.ar    2  UNL2        0.0000
     25 C           4.0250   -6.8148   -1.6424 C.3     2  UNL2        0.0000
     26 H           3.7833   -6.2294   -2.5369 H       2  UNL2        0.0000
     27 H           4.5466   -7.7233   -1.9509 H       2  UNL2        0.0000
     28 H           3.0742   -7.1004   -1.1772 H       2  UNL2        0.0000
     29 C           2.6473    2.4367    1.6211 C.ar    2  UNL2        0.0000
     30 C           3.4087    2.9347    0.5546 C.ar    2  UNL2        0.0000
     31 C           1.5987    3.2226    2.1216 C.ar    2  UNL2        0.0000
     32 C           3.1346    4.1838   -0.0042 C.ar    2  UNL2        0.0000
     33 C           1.3294    4.4770    1.5682 C.ar    2  UNL2        0.0000
     34 C           2.0923    4.9616    0.5026 C.ar    2  UNL2        0.0000
     35 H           4.2222    2.3342    0.1579 H       2  UNL2        0.0000
     36 H           0.9786    2.8512    2.9302 H       2  UNL2        0.0000
     37 H           3.7388    4.5490   -0.8299 H       2  UNL2        0.0000
     38 H           0.5126    5.0728    1.9664 H       2  UNL2        0.0000
     39 H           1.8771    5.9360    0.0738 H       2  UNL2        0.0000
@<TRIPOS>BOND
     1    26    25    1
     2    27    25    1
     3    25    28    1
     4    25    24    1
     5    15    11    1
     6    37    32    1
     7     6     2    1
     8    24    22   ar
     9    24    12   ar
    10    23    22    1
    11    11    12   ar
    12    11     9   ar
    13    22    20   ar
    14    12    10   ar
    15    14     9    1
    16    32    34   ar
    17    32    30   ar
    18     2     3    1
    19    39    34    1
    20    35    30    1
    21     9     7   ar
    22     4     3    1
    23    34    33   ar
    24    30    29   ar
    25    20    19   ar
    26    20    21    2
    27    10    19   ar
    28    10     8   ar
    29     7     8   ar
    30     7     5    1
    31     3     5    1
    32     3    16    1
    33     8    13    1
    34    33    38    1
    35    33    31   ar
    36    29    31   ar
    37    29    16    1
    38    31    36    1
    39    16    17    1
    40    16    18    1
    41     1     2    1
@<TRIPOS>MOLECULE
TS_4MU_phenylacetate_ZnHis3_OAc_2MeOH_ENANTIOMER_TS_7793.xyz -140.786864976704
 39 41 0 0 0
SMALL
GASTEIGER

@<TRIPOS>ATOM
      1 ZN          0.0000    0.0000    0.0000 Zn      1  UNL1        0.0000
      2 O           1.9944    0.0000    0.0000 O.3     2  UNL2        0.0000
      3 C           3.3278    0.0000    1.1216 C.3     2  UNL2        0.0000
      4 O           4.3527    0.1243    0.4070 O.3     2  UNL2        0.0000
      5 O           3.0803   -1.2671    1.7575 O.3     2  UNL2        0.0000
      6 H           2.3140    0.5711   -0.7349 H       2  UNL2        0.0000
      7 C           3.9677   -2.2815    1.4931 C.ar    2  UNL2        0.0000
      8 C           3.4280   -3.5254    1.1871 C.ar    2  UNL2        0.0000
      9 C           5.3593   -2.0944    1.5285 C.ar    2  UNL2        0.0000
     10 C           4.2845   -4.5622    0.8379 C.ar    2  UNL2        0.0000
     11 C           6.1967   -3.1477    1.1926 C.ar    2  UNL2        0.0000
     12 C           5.6810   -4.4038    0.8142 C.ar    2  UNL2        0.0000
     13 H           2.3572   -3.6696    1.1739 H       2  UNL2        0.0000
     14 H           5.7598   -1.1281    1.8017 H       2  UNL2        0.0000
     15 H           7.2699   -2.9945    1.2029 H       2  UNL2        0.0000
     16 C           2.9492    1.0582    2.1601 C.3     2  UNL2        0.0000
     17 H           2.0926    0.6978    2.7307 H       2  UNL2        0.0000
     18 H           3.8009    1.0963    2.8519 H       2  UNL2        0.0000
     19 O           3.6944   -5.7378    0.4678 O.2     2  UNL2        0.0000
     20 C           4.4133   -6.7770   -0.0818 C.ar    2  UNL2        0.0000
     21 O           3.7605   -7.7012   -0.5541 O.2     2  UNL2        0.0000
     22 C           5.8506   -6.6594   -0.0503 C.ar    2  UNL2        0.0000
     23 H           6.4047   -7.5117   -0.4256 H       2  UNL2        0.0000
     24 C           6.4830   -5.5278    0.3729 C.ar    2  UNL2        0.0000
     25 C           7.9798   -5.4205    0.3527 C.3     2  UNL2        0.0000
     26 H           8.3666   -5.1979    1.3537 H       2  UNL2        0.0000
     27 H           8.4356   -6.3485    0.0012 H       2  UNL2        0.0000
     28 H           8.3000   -4.6044   -0.3057 H       2  UNL2        0.0000
     29 C           2.6473    2.4367    1.6211 C.ar    2  UNL2        0.0000
     30 C           1.4777    3.0901    2.0336 C.ar    2  UNL2        0.0000
     31 C           3.5211    3.1086    0.7535 C.ar    2  UNL2        0.0000
     32 C           1.1825    4.3823    1.5967 C.ar    2  UNL2        0.0000
     33 C           3.2217    4.3989    0.3088 C.ar    2  UNL2        0.0000
     34 C           2.0550    5.0423    0.7298 C.ar    2  UNL2        0.0000
     35 H           0.7945    2.5802    2.7066 H       2  UNL2        0.0000
     36 H           4.4447    2.6357    0.4379 H       2  UNL2        0.0000
     37 H           0.2698    4.8683    1.9295 H       2  UNL2        0.0000
     38 H           3.9098    4.9063   -0.3619 H       2  UNL2        0.0000
     39 H           1.8282    6.0465    0.3838 H       2  UNL2        0.0000
@<TRIPOS>BOND
     1     6     2    1
     2    21    20    2
     3    23    22    1
     4    38    33    1
     5    28    25    1
     6    20    22   ar
     7    20    19   ar
     8    22    24   ar
     9     2     3    1
    10    27    25    1
    11    33    34   ar
    12    33    31   ar
    13    25    24    1
    14    25    26    1
    15    24    12   ar
    16    39    34    1
    17     4     3    1
    18    36    31    1
    19    19    10   ar
    20    34    32   ar
    21    31    29   ar
    22    12    10   ar
    23    12    11   ar
    24    10     8   ar
    25     3     5    1
    26     3    16    1
    27    13     8    1
    28     8     7   ar
    29    11    15    1
    30    11     9   ar
    31     7     9   ar
    32     7     5    1
    33     9    14    1
    34    32    37    1
    35    32    30   ar
    36    29    30   ar
    37    29    16    1
    38    30    35    1
    39    16    17    1
    40    16    18    1
    41     1     2    1
@<TRIPOS>MOLECULE
TS_4MU_phenylacetate_ZnHis3_OAc_2MeOH_ENANTIOMER_TS_7417.xyz -140.786804582245
 39 41 0 0 0
SMALL
GASTEIGER

@<TRIPOS>ATOM
      1 ZN          0.0000    0.0000    0.0000 Zn      1  UNL1        0.0000
      2 O           1.9944    0.0000    0.0000 O.3     2  UNL2        0.0000
      3 C           3.3278    0.0000    1.1216 C.3     2  UNL2        0.0000
      4 O           4.3527    0.1243    0.4070 O.3     2  UNL2        0.0000
      5 O           3.0803   -1.2671    1.7575 O.3     2  UNL2        0.0000
      6 H           2.3140    0.5711   -0.7349 H       2  UNL2        0.0000
      7 C           3.7415   -2.3590    1.2506 C.ar    2  UNL2        0.0000
      8 C           4.9944   -2.6388    1.7835 C.ar    2  UNL2        0.0000
      9 C           3.1978   -3.1667    0.2383 C.ar    2  UNL2        0.0000
     10 C           5.6675   -3.7768    1.3566 C.ar    2  UNL2        0.0000
     11 C           3.8944   -4.2889   -0.1851 C.ar    2  UNL2        0.0000
     12 C           5.1375   -4.6381    0.3803 C.ar    2  UNL2        0.0000
     13 H           5.4159   -2.0076    2.5527 H       2  UNL2        0.0000
     14 H           2.2368   -2.9130   -0.1869 H       2  UNL2        0.0000
     15 H           3.4632   -4.9205   -0.9535 H       2  UNL2        0.0000
     16 C           2.9492    1.0582    2.1601 C.3     2  UNL2        0.0000
     17 H           2.2842    0.6045    2.8957 H       2  UNL2        0.0000
     18 H           3.8866    1.2956    2.6800 H       2  UNL2        0.0000
     19 O           6.8567   -4.0455    1.9738 O.2     2  UNL2        0.0000
     20 C           7.5281   -5.2340    1.7847 C.ar    2  UNL2        0.0000
     21 O           8.4765   -5.4487    2.5314 O.2     2  UNL2        0.0000
     22 C           7.0366   -6.0971    0.7386 C.ar    2  UNL2        0.0000
     23 H           7.6123   -6.9969    0.5565 H       2  UNL2        0.0000
     24 C           5.8885   -5.8337    0.0517 C.ar    2  UNL2        0.0000
     25 C           5.3802   -6.7741   -1.0016 C.3     2  UNL2        0.0000
     26 H           5.2720   -6.2587   -1.9628 H       2  UNL2        0.0000
     27 H           6.0584   -7.6196   -1.1339 H       2  UNL2        0.0000
     28 H           4.3909   -7.1607   -0.7298 H       2  UNL2        0.0000
     29 C           2.3134    2.3178    1.6205 C.ar    2  UNL2        0.0000
     30 C           3.0959    3.2140    0.8791 C.ar    2  UNL2        0.0000
     31 C           0.9514    2.6031    1.7969 C.ar    2  UNL2        0.0000
     32 C           2.5390    4.3667    0.3233 C.ar    2  UNL2        0.0000
     33 C           0.3952    3.7615    1.2481 C.ar    2  UNL2        0.0000
     34 C           1.1838    4.6456    0.5073 C.ar    2  UNL2        0.0000
     35 H           4.1514    3.0025    0.7347 H       2  UNL2        0.0000
     36 H           0.3179    1.9147    2.3457 H       2  UNL2        0.0000
     37 H           3.1653    5.0467   -0.2470 H       2  UNL2        0.0000
     38 H          -0.6619    3.9672    1.3926 H       2  UNL2        0.0000
     39 H           0.7461    5.5431    0.0801 H       2  UNL2        0.0000
@<TRIPOS>BOND
     1    26    25    1
     2    27    25    1
     3    25    28    1
     4    25    24    1
     5    15    11    1
     6     6     2    1
     7    37    32    1
     8    14     9    1
     9    11     9   ar
    10    11    12   ar
    11     2     3    1
    12    24    12   ar
    13    24    22   ar
    14    39    34    1
    15     9     7   ar
    16    32    34   ar
    17    32    30   ar
    18    12    10   ar
    19     4     3    1
    20    34    33   ar
    21    23    22    1
    22    35    30    1
    23    22    20   ar
    24    30    29   ar
    25     3     5    1
    26     3    16    1
    27    33    38    1
    28    33    31   ar
    29     7     5    1
    30     7     8   ar
    31    10     8   ar
    32    10    19   ar
    33    29    31   ar
    34    29    16    1
    35     8    13    1
    36    20    19   ar
    37    20    21    2
    38    31    36    1
    39    16    18    1
    40    16    17    1
    41     1     2    1
@<TRIPOS>MOLECULE
TS_4MU_phenylacetate_ZnHis3_OAc_2MeOH_ENANTIOMER_TS_10828.xyz -140.786581046685
 39 41 0 0 0
SMALL
GASTEIGER

@<TRIPOS>ATOM
      1 ZN          0.0000    0.0000    0.0000 Zn      1  UNL1        0.0000
      2 O           1.9944    0.0000    0.0000 O.3     2  UNL2        0.0000
      3 C           3.3278    0.0000    1.1216 C.3     2  UNL2        0.0000
      4 O           4.3527    0.1243    0.4070 O.3     2  UNL2        0.0000
      5 O           3.0803   -1.2671    1.7575 O.3     2  UNL2        0.0000
      6 H           2.3140    0.5711   -0.7349 H       2  UNL2        0.0000
      7 C           3.2770   -2.3948    0.9985 C.ar    2  UNL2        0.0000
      8 C           2.1902   -3.2479    0.8464 C.ar    2  UNL2        0.0000
      9 C           4.5110   -2.6939    0.3982 C.ar    2  UNL2        0.0000
     10 C           2.3193   -4.3611    0.0251 C.ar    2  UNL2        0.0000
     11 C           4.6227   -3.8196   -0.4044 C.ar    2  UNL2        0.0000
     12 C           3.5225   -4.6707   -0.6326 C.ar    2  UNL2        0.0000
     13 H           1.2459   -3.0220    1.3207 H       2  UNL2        0.0000
     14 H           5.3536   -2.0353    0.5562 H       2  UNL2        0.0000
     15 H           5.5716   -4.0374   -0.8812 H       2  UNL2        0.0000
     16 C           2.9492    1.0582    2.1601 C.3     2  UNL2        0.0000
     17 H           3.6544    1.8868    2.0885 H       2  UNL2        0.0000
     18 H           1.9727    1.4404    1.8347 H       2  UNL2        0.0000
     19 O           1.1954   -5.1178   -0.1521 O.2     2  UNL2        0.0000
     20 C           1.1335   -6.1303   -1.0848 C.ar    2  UNL2        0.0000
     21 O           0.0251   -6.6108   -1.2946 O.2     2  UNL2        0.0000
     22 C           2.3741   -6.5058   -1.7177 C.ar    2  UNL2        0.0000
     23 H           2.3233   -7.3462   -2.3999 H       2  UNL2        0.0000
     24 C           3.5346   -5.8179   -1.5187 C.ar    2  UNL2        0.0000
     25 C           4.7997   -6.2073   -2.2258 C.3     2  UNL2        0.0000
     26 H           5.5967   -6.4230   -1.5051 H       2  UNL2        0.0000
     27 H           4.6454   -7.0904   -2.8494 H       2  UNL2        0.0000
     28 H           5.1540   -5.3888   -2.8632 H       2  UNL2        0.0000
     29 C           2.8775    0.5843    3.5926 C.ar    2  UNL2        0.0000
     30 C           1.8011    0.9908    4.3933 C.ar    2  UNL2        0.0000
     31 C           3.8296   -0.2881    4.1405 C.ar    2  UNL2        0.0000
     32 C           1.6710    0.5403    5.7078 C.ar    2  UNL2        0.0000
     33 C           3.7045   -0.7326    5.4593 C.ar    2  UNL2        0.0000
     34 C           2.6252   -0.3241    6.2469 C.ar    2  UNL2        0.0000
     35 H           1.0569    1.6650    3.9792 H       2  UNL2        0.0000
     36 H           4.6593   -0.6374    3.5355 H       2  UNL2        0.0000
     37 H           0.8285    0.8694    6.3094 H       2  UNL2        0.0000
     38 H           4.4498   -1.4094    5.8682 H       2  UNL2        0.0000
     39 H           2.5307   -0.6748    7.2705 H       2  UNL2        0.0000
@<TRIPOS>BOND
     1    28    25    1
     2    27    25    1
     3    23    22    1
     4    25    24    1
     5    25    26    1
     6    22    24   ar
     7    22    20   ar
     8    24    12   ar
     9    21    20    2
    10    20    19   ar
    11    15    11    1
    12     6     2    1
    13    12    11   ar
    14    12    10   ar
    15    11     9   ar
    16    19    10   ar
    17     2     3    1
    18    10     8   ar
    19     9    14    1
    20     9     7   ar
    21     4     3    1
    22     8     7   ar
    23     8    13    1
    24     7     5    1
    25     3     5    1
    26     3    16    1
    27    18    16    1
    28    17    16    1
    29    16    29    1
    30    36    31    1
    31    29    31   ar
    32    29    30   ar
    33    35    30    1
    34    31    33   ar
    35    30    32   ar
    36    33    38    1
    37    33    34   ar
    38    32    34   ar
    39    32    37    1
    40    34    39    1
    41     1     2    1
@<TRIPOS>MOLECULE
TS_4MU_phenylacetate_ZnHis3_OAc_2MeOH_ENANTIOMER_TS_124.xyz -140.786508342095
 39 41 0 0 0
SMALL
GASTEIGER

@<TRIPOS>ATOM
      1 ZN          0.0000    0.0000    0.0000 Zn      1  UNL1        0.0000
      2 O           1.9944    0.0000    0.0000 O.3     2  UNL2        0.0000
      3 C           3.3278    0.0000    1.1216 C.3     2  UNL2        0.0000
      4 O           4.3527    0.1243    0.4070 O.3     2  UNL2        0.0000
      5 O           3.0803   -1.2671    1.7575 O.3     2  UNL2        0.0000
      6 H           2.3140    0.5711   -0.7349 H       2  UNL2        0.0000
      7 C           3.5316   -2.3898    1.1076 C.ar    2  UNL2        0.0000
      8 C           2.6420   -3.4520    0.9958 C.ar    2  UNL2        0.0000
      9 C           4.8285   -2.4836    0.5766 C.ar    2  UNL2        0.0000
     10 C           3.0274   -4.5790    0.2803 C.ar    2  UNL2        0.0000
     11 C           5.1983   -3.6247   -0.1197 C.ar    2  UNL2        0.0000
     12 C           4.2990   -4.6937   -0.3078 C.ar    2  UNL2        0.0000
     13 H           1.6495   -3.3819    1.4171 H       2  UNL2        0.0000
     14 H           5.5167   -1.6596    0.7035 H       2  UNL2        0.0000
     15 H           6.1939   -3.6861   -0.5442 H       2  UNL2        0.0000
     16 C           2.9492    1.0582    2.1601 C.3     2  UNL2        0.0000
     17 H           2.1038    0.6903    2.7425 H       2  UNL2        0.0000
     18 H           3.8086    1.1094    2.8413 H       2  UNL2        0.0000
     19 O           2.0838   -5.5564    0.1338 O.2     2  UNL2        0.0000
     20 C           2.2679   -6.6320   -0.7077 C.ar    2  UNL2        0.0000
     21 O           1.2870   -7.3392   -0.9104 O.2     2  UNL2        0.0000
     22 C           3.5879   -6.8017   -1.2641 C.ar    2  UNL2        0.0000
     23 H           3.7366   -7.6871   -1.8709 H       2  UNL2        0.0000
     24 C           4.5796   -5.8825   -1.0886 C.ar    2  UNL2        0.0000
     25 C           5.9299   -6.0668   -1.7169 C.3     2  UNL2        0.0000
     26 H           6.7171   -6.0608   -0.9543 H       2  UNL2        0.0000
     27 H           5.9829   -7.0098   -2.2650 H       2  UNL2        0.0000
     28 H           6.1480   -5.2475   -2.4120 H       2  UNL2        0.0000
     29 C           2.6245    2.4307    1.6189 C.ar    2  UNL2        0.0000
     30 C           1.3281    2.9391    1.7801 C.ar    2  UNL2        0.0000
     31 C           3.5894    3.2373    0.9977 C.ar    2  UNL2        0.0000
     32 C           0.9968    4.2201    1.3365 C.ar    2  UNL2        0.0000
     33 C           3.2559    4.5167    0.5456 C.ar    2  UNL2        0.0000
     34 C           1.9616    5.0148    0.7153 C.ar    2  UNL2        0.0000
     35 H           0.5731    2.3239    2.2612 H       2  UNL2        0.0000
     36 H           4.6062    2.8781    0.8820 H       2  UNL2        0.0000
     37 H          -0.0147    4.5925    1.4719 H       2  UNL2        0.0000
     38 H           4.0154    5.1296    0.0677 H       2  UNL2        0.0000
     39 H           1.7081    6.0111    0.3648 H       2  UNL2        0.0000
@<TRIPOS>BOND
     1    28    25    1
     2    27    25    1
     3    23    22    1
     4    25    24    1
     5    25    26    1
     6    22    24   ar
     7    22    20   ar
     8    24    12   ar
     9    21    20    2
    10     6     2    1
    11    20    19   ar
    12    15    11    1
    13    12    11   ar
    14    12    10   ar
    15    11     9   ar
    16     2     3    1
    17    38    33    1
    18    19    10   ar
    19    10     8   ar
    20    39    34    1
    21     4     3    1
    22    33    34   ar
    23    33    31   ar
    24     9    14    1
    25     9     7   ar
    26    34    32   ar
    27    36    31    1
    28     8     7   ar
    29     8    13    1
    30    31    29   ar
    31     7     5    1
    32     3     5    1
    33     3    16    1
    34    32    37    1
    35    32    30   ar
    36    29    30   ar
    37    29    16    1
    38    30    35    1
    39    16    17    1
    40    16    18    1
    41     1     2    1
