@<TRIPOS>MOLECULE
TS_4MU_phenylacetate_ZnHis3_OAc_2MeOH_0.xyz -140.803442918881
 39 41 0 0 0
SMALL
GASTEIGER

@<TRIPOS>ATOM
      1 ZN         -0.4191   -0.9150    0.7914 Zn      1  UNL1        0.0000
      2 O          -1.2687    0.4572   -0.3824 O.3     2  UNL2        0.0000
      3 C          -0.9565    1.0056   -1.9434 C.3     2  UNL2        0.0000
      4 O          -1.1052    2.2621   -1.9454 O.3     2  UNL2        0.0000
      5 O           0.3459    0.4803   -2.1984 O.3     2  UNL2        0.0000
      6 H          -1.3896    1.2761    0.1537 H       2  UNL2        0.0000
      7 C           1.4625    0.8772   -1.5303 C.ar    2  UNL2        0.0000
      8 C           2.6079    0.1430   -1.8447 C.ar    2  UNL2        0.0000
      9 C           1.5226    1.9015   -0.5663 C.ar    2  UNL2        0.0000
     10 C           3.7862    0.3885   -1.1548 C.ar    2  UNL2        0.0000
     11 C           2.7151    2.1327    0.1037 C.ar    2  UNL2        0.0000
     12 C           3.8711    1.3720   -0.1490 C.ar    2  UNL2        0.0000
     13 H           2.5645   -0.6449   -2.5859 H       2  UNL2        0.0000
     14 H           0.6634    2.5211   -0.3691 H       2  UNL2        0.0000
     15 H           2.7522    2.9240    0.8446 H       2  UNL2        0.0000
     16 C          -1.9300    0.1714   -2.7895 C.3     2  UNL2        0.0000
     17 H          -2.9149    0.6219   -2.6400 H       2  UNL2        0.0000
     18 H          -1.6443    0.3686   -3.8302 H       2  UNL2        0.0000
     19 O           4.8587   -0.3947   -1.4801 O.2     2  UNL2        0.0000
     20 C           6.0764   -0.2878   -0.8203 C.ar    2  UNL2        0.0000
     21 O           6.9635   -1.0420   -1.1768 O.2     2  UNL2        0.0000
     22 C           6.1619    0.7064    0.2273 C.ar    2  UNL2        0.0000
     23 H           7.1172    0.7702    0.7351 H       2  UNL2        0.0000
     24 C           5.1228    1.5199    0.5620 C.ar    2  UNL2        0.0000
     25 C           5.2507    2.5398    1.6564 C.3     2  UNL2        0.0000
     26 H           4.5167    2.3519    2.4487 H       2  UNL2        0.0000
     27 H           6.2499    2.5198    2.0967 H       2  UNL2        0.0000
     28 H           5.0596    3.5488    1.2730 H       2  UNL2        0.0000
     29 C          -1.9879   -1.3155   -2.5279 C.ar    2  UNL2        0.0000
     30 C          -0.9091   -2.1617   -2.8300 C.ar    2  UNL2        0.0000
     31 C          -3.1518   -1.8854   -1.9985 C.ar    2  UNL2        0.0000
     32 C          -0.9923   -3.5338   -2.5922 C.ar    2  UNL2        0.0000
     33 C          -3.2405   -3.2594   -1.7645 C.ar    2  UNL2        0.0000
     34 C          -2.1573   -4.0885   -2.0528 C.ar    2  UNL2        0.0000
     35 H          -0.0049   -1.7403   -3.2546 H       2  UNL2        0.0000
     36 H          -4.0001   -1.2470   -1.7660 H       2  UNL2        0.0000
     37 H          -0.1506   -4.1753   -2.8406 H       2  UNL2        0.0000
     38 H          -4.1523   -3.6766   -1.3489 H       2  UNL2        0.0000
     39 H          -2.2204   -5.1569   -1.8688 H       2  UNL2        0.0000
@<TRIPOS>BOND
     1    18    16    1
     2    35    30    1
     3    37    32    1
     4    30    32   ar
     5    30    29   ar
     6    16    17    1
     7    16    29    1
     8    16     3    1
     9    32    34   ar
    10    13     8    1
    11    29    31   ar
    12     5     3    1
    13     5     7    1
    14    34    39    1
    15    34    33   ar
    16    31    36    1
    17    31    33   ar
    18     4     3    1
    19     3     2    1
    20     8     7   ar
    21     8    10   ar
    22    33    38    1
    23     7     9   ar
    24    19    10   ar
    25    19    20   ar
    26    21    20    2
    27    10    12   ar
    28    20    22   ar
    29     9    14    1
    30     9    11   ar
    31     2     6    1
    32    12    11   ar
    33    12    24   ar
    34    11    15    1
    35    22    24   ar
    36    22    23    1
    37    24    25    1
    38    28    25    1
    39    25    27    1
    40    25    26    1
    41     1     2    1 
@<TRIPOS>MOLECULE
TS_4MU_phenylacetate_ZnHis3_OAc_2MeOH_802.xyz -140.799579152406
 39 41 0 0 0
SMALL
GASTEIGER

@<TRIPOS>ATOM
      1 ZN          0.0000    0.0000    0.0000 Zn      1  UNL1        0.0000
      2 O           1.9956    0.0000    0.0000 O.3     2  UNL2        0.0000
      3 C           3.1580    0.0000    1.2181 C.3     2  UNL2        0.0000
      4 O           4.0865    0.7824    0.8623 O.3     2  UNL2        0.0000
      5 O           2.3925    0.3431    2.3729 O.3     2  UNL2        0.0000
      6 H           2.2948    0.6928   -0.6349 H       2  UNL2        0.0000
      7 C           1.7926    1.5516    2.5474 C.ar    2  UNL2        0.0000
      8 C           1.3616    1.7923    3.8535 C.ar    2  UNL2        0.0000
      9 C           1.5587    2.5059    1.5391 C.ar    2  UNL2        0.0000
     10 C           0.6469    2.9478    4.1341 C.ar    2  UNL2        0.0000
     11 C           0.8486    3.6571    1.8470 C.ar    2  UNL2        0.0000
     12 C           0.3510    3.9019    3.1398 C.ar    2  UNL2        0.0000
     13 H           1.5407    1.0603    4.6307 H       2  UNL2        0.0000
     14 H           1.9505    2.3624    0.5456 H       2  UNL2        0.0000
     15 H           0.6732    4.3870    1.0641 H       2  UNL2        0.0000
     16 C           3.4964   -1.4922    1.3543 C.3     2  UNL2        0.0000
     17 H           4.2292   -1.7034    0.5708 H       2  UNL2        0.0000
     18 H           4.0219   -1.5788    2.3133 H       2  UNL2        0.0000
     19 O           0.2163    3.1018    5.4226 O.2     2  UNL2        0.0000
     20 C          -0.5594    4.1849    5.8161 C.ar    2  UNL2        0.0000
     21 O          -0.9029    4.2204    6.9838 O.2     2  UNL2        0.0000
     22 C          -0.8834    5.1564    4.7942 C.ar    2  UNL2        0.0000
     23 H          -1.4948    5.9905    5.1185 H       2  UNL2        0.0000
     24 C          -0.4524    5.0484    3.5074 C.ar    2  UNL2        0.0000
     25 C          -0.8105    6.0779    2.4748 C.3     2  UNL2        0.0000
     26 H          -1.3654    5.6201    1.6476 H       2  UNL2        0.0000
     27 H          -1.4240    6.8709    2.9077 H       2  UNL2        0.0000
     28 H           0.0914    6.5304    2.0464 H       2  UNL2        0.0000
     29 C           2.3541   -2.4784    1.2842 C.ar    2  UNL2        0.0000
     30 C           2.1887   -3.3410    0.1888 C.ar    2  UNL2        0.0000
     31 C           1.4095   -2.5257    2.3162 C.ar    2  UNL2        0.0000
     32 C           1.1175   -4.2335    0.1407 C.ar    2  UNL2        0.0000
     33 C           0.3327   -3.4138    2.2687 C.ar    2  UNL2        0.0000
     34 C           0.1868   -4.2775    1.1840 C.ar    2  UNL2        0.0000
     35 H           2.9021   -3.3081   -0.6270 H       2  UNL2        0.0000
     36 H           1.5167   -1.8598    3.1684 H       2  UNL2        0.0000
     37 H           1.0000   -4.8877   -0.7194 H       2  UNL2        0.0000
     38 H          -0.3838   -3.4346    3.0838 H       2  UNL2        0.0000
     39 H          -0.6468   -4.9724    1.1448 H       2  UNL2        0.0000
@<TRIPOS>BOND
     1    37    32    1
     2     6     2    1
     3    35    30    1
     4     2     3    1
     5    32    30   ar
     6    32    34   ar
     7    30    29   ar
     8    14     9    1
     9    17    16    1
    10     4     3    1
    11    15    11    1
    12    39    34    1
    13    34    33   ar
    14     3    16    1
    15     3     5    1
    16    29    16    1
    17    29    31   ar
    18    16    18    1
    19     9    11   ar
    20     9     7   ar
    21    26    25    1
    22    11    12   ar
    23    28    25    1
    24    33    31   ar
    25    33    38    1
    26    31    36    1
    27     5     7    1
    28    25    27    1
    29    25    24    1
    30     7     8   ar
    31    12    24   ar
    32    12    10   ar
    33    24    22   ar
    34     8    10   ar
    35     8    13    1
    36    10    19   ar
    37    22    23    1
    38    22    20   ar
    39    19    20   ar
    40    20    21    2
    41     1     2    1 
@<TRIPOS>MOLECULE
TS_4MU_phenylacetate_ZnHis3_OAc_2MeOH_365.xyz -140.795652454674
 39 41 0 0 0
SMALL
GASTEIGER

@<TRIPOS>ATOM
      1 ZN          0.0000    0.0000    0.0000 Zn      1  UNL1        0.0000
      2 O           1.9956    0.0000    0.0000 O.3     2  UNL2        0.0000
      3 C           3.1580    0.0000    1.2181 C.3     2  UNL2        0.0000
      4 O           4.0865    0.7824    0.8623 O.3     2  UNL2        0.0000
      5 O           2.3925    0.3431    2.3729 O.3     2  UNL2        0.0000
      6 H           2.2948    0.6928   -0.6349 H       2  UNL2        0.0000
      7 C           2.6427    1.4344    3.1457 C.ar    2  UNL2        0.0000
      8 C           1.4982    2.0352    3.6737 C.ar    2  UNL2        0.0000
      9 C           3.9123    1.9870    3.4006 C.ar    2  UNL2        0.0000
     10 C           1.6177    3.2137    4.3959 C.ar    2  UNL2        0.0000
     11 C           4.0056    3.1618    4.1324 C.ar    2  UNL2        0.0000
     12 C           2.8673    3.8225    4.6289 C.ar    2  UNL2        0.0000
     13 H           0.5209    1.6120    3.4796 H       2  UNL2        0.0000
     14 H           4.8057    1.4910    3.0590 H       2  UNL2        0.0000
     15 H           4.9877    3.5803    4.3242 H       2  UNL2        0.0000
     16 C           3.4964   -1.4922    1.3543 C.3     2  UNL2        0.0000
     17 H           3.9884   -1.7719    0.4188 H       2  UNL2        0.0000
     18 H           4.2587   -1.5408    2.1417 H       2  UNL2        0.0000
     19 O           0.4550    3.7737    4.8475 O.2     2  UNL2        0.0000
     20 C           0.4359    4.9833    5.5303 C.ar    2  UNL2        0.0000
     21 O          -0.6535    5.4026    5.8769 O.2     2  UNL2        0.0000
     22 C           1.7145    5.6226    5.7536 C.ar    2  UNL2        0.0000
     23 H           1.6788    6.5684    6.2816 H       2  UNL2        0.0000
     24 C           2.8938    5.0831    5.3396 C.ar    2  UNL2        0.0000
     25 C           4.2010    5.7778    5.5900 C.3     2  UNL2        0.0000
     26 H           4.7109    5.9964    4.6444 H       2  UNL2        0.0000
     27 H           4.0500    6.7162    6.1280 H       2  UNL2        0.0000
     28 H           4.8732    5.1433    6.1793 H       2  UNL2        0.0000
     29 C           2.3615   -2.4429    1.6551 C.ar    2  UNL2        0.0000
     30 C           1.8146   -2.5570    2.9431 C.ar    2  UNL2        0.0000
     31 C           1.8499   -3.2609    0.6408 C.ar    2  UNL2        0.0000
     32 C           0.7760   -3.4526    3.1990 C.ar    2  UNL2        0.0000
     33 C           0.8142   -4.1628    0.8946 C.ar    2  UNL2        0.0000
     34 C           0.2672   -4.2565    2.1736 C.ar    2  UNL2        0.0000
     35 H           2.2081   -1.9422    3.7448 H       2  UNL2        0.0000
     36 H           2.2664   -3.1923   -0.3607 H       2  UNL2        0.0000
     37 H           0.3707   -3.5341    4.2043 H       2  UNL2        0.0000
     38 H           0.4316   -4.7829    0.0901 H       2  UNL2        0.0000
     39 H          -0.5409   -4.9536    2.3745 H       2  UNL2        0.0000
@<TRIPOS>BOND
     1     6     2    1
     2    36    31    1
     3     2     3    1
     4    38    33    1
     5    17    16    1
     6    31    33   ar
     7    31    29   ar
     8     4     3    1
     9    33    34   ar
    10     3    16    1
    11     3     5    1
    12    16    29    1
    13    16    18    1
    14    29    30   ar
    15    34    39    1
    16    34    32   ar
    17     5     7    1
    18    30    32   ar
    19    30    35    1
    20    14     9    1
    21     7     9   ar
    22     7     8   ar
    23    32    37    1
    24     9    11   ar
    25    13     8    1
    26     8    10   ar
    27    11    15    1
    28    11    12   ar
    29    10    12   ar
    30    10    19   ar
    31    12    24   ar
    32    26    25    1
    33    19    20   ar
    34    24    25    1
    35    24    22   ar
    36    20    22   ar
    37    20    21    2
    38    25    27    1
    39    25    28    1
    40    22    23    1
    41     1     2    1 
@<TRIPOS>MOLECULE
TS_4MU_phenylacetate_ZnHis3_OAc_2MeOH_6003.xyz -140.794449009527
 39 41 0 0 0
SMALL
GASTEIGER

@<TRIPOS>ATOM
      1 ZN          0.0000    0.0000    0.0000 Zn      1  UNL1        0.0000
      2 O           1.9956    0.0000    0.0000 O.3     2  UNL2        0.0000
      3 C           3.1580    0.0000    1.2181 C.3     2  UNL2        0.0000
      4 O           4.0865    0.7824    0.8623 O.3     2  UNL2        0.0000
      5 O           2.3925    0.3431    2.3729 O.3     2  UNL2        0.0000
      6 H           2.2948    0.6928   -0.6349 H       2  UNL2        0.0000
      7 C           2.1410    1.6237    2.7569 C.ar    2  UNL2        0.0000
      8 C           2.0130    1.7918    4.1371 C.ar    2  UNL2        0.0000
      9 C           1.9734    2.7226    1.8929 C.ar    2  UNL2        0.0000
     10 C           1.6573    3.0336    4.6431 C.ar    2  UNL2        0.0000
     11 C           1.6259    3.9559    2.4244 C.ar    2  UNL2        0.0000
     12 C           1.4330    4.1443    3.8050 C.ar    2  UNL2        0.0000
     13 H           2.1418    0.9485    4.8036 H       2  UNL2        0.0000
     14 H           2.1414    2.6190    0.8336 H       2  UNL2        0.0000
     15 H           1.4990    4.7970    1.7514 H       2  UNL2        0.0000
     16 C           3.4964   -1.4922    1.3543 C.3     2  UNL2        0.0000
     17 H           4.3545   -1.6633    0.6986 H       2  UNL2        0.0000
     18 H           3.8545   -1.6103    2.3845 H       2  UNL2        0.0000
     19 O           1.5057    3.1198    5.9992 O.2     2  UNL2        0.0000
     20 C           1.0940    4.2913    6.6219 C.ar    2  UNL2        0.0000
     21 O           0.9761    4.2585    7.8335 O.2     2  UNL2        0.0000
     22 C           0.8422    5.4285    5.7637 C.ar    2  UNL2        0.0000
     23 H           0.5152    6.3311    6.2667 H       2  UNL2        0.0000
     24 C           1.0055    5.3864    4.4128 C.ar    2  UNL2        0.0000
     25 C           0.7333    6.5885    3.5554 C.3     2  UNL2        0.0000
     26 H          -0.0499    6.3704    2.8200 H       2  UNL2        0.0000
     27 H           0.4132    7.4386    4.1618 H       2  UNL2        0.0000
     28 H           1.6296    6.8788    2.9951 H       2  UNL2        0.0000
     29 C           2.4008   -2.4887    1.0558 C.ar    2  UNL2        0.0000
     30 C           1.3907   -2.7776    1.9871 C.ar    2  UNL2        0.0000
     31 C           2.3949   -3.1733   -0.1653 C.ar    2  UNL2        0.0000
     32 C           0.3976   -3.7123    1.6935 C.ar    2  UNL2        0.0000
     33 C           1.4057   -4.1140   -0.4603 C.ar    2  UNL2        0.0000
     34 C           0.3977   -4.3815    0.4651 C.ar    2  UNL2        0.0000
     35 H           1.3877   -2.2681    2.9442 H       2  UNL2        0.0000
     36 H           3.1736   -2.9687   -0.8952 H       2  UNL2        0.0000
     37 H          -0.3716   -3.9301    2.4301 H       2  UNL2        0.0000
     38 H           1.4202   -4.6282   -1.4161 H       2  UNL2        0.0000
     39 H          -0.3757   -5.1093    0.2383 H       2  UNL2        0.0000
@<TRIPOS>BOND
     1    38    33    1
     2    36    31    1
     3     6     2    1
     4    33    31   ar
     5    33    34   ar
     6    31    29   ar
     7     2     3    1
     8    39    34    1
     9    34    32   ar
    10    17    16    1
    11    14     9    1
    12     4     3    1
    13    29    16    1
    14    29    30   ar
    15     3    16    1
    16     3     5    1
    17    16    18    1
    18    32    30   ar
    19    32    37    1
    20    15    11    1
    21     9    11   ar
    22     9     7   ar
    23    30    35    1
    24     5     7    1
    25    11    12   ar
    26     7     8   ar
    27    26    25    1
    28    28    25    1
    29    25    27    1
    30    25    24    1
    31    12    24   ar
    32    12    10   ar
    33     8    10   ar
    34     8    13    1
    35    24    22   ar
    36    10    19   ar
    37    22    23    1
    38    22    20   ar
    39    19    20   ar
    40    20    21    2
    41     1     2    1 
@<TRIPOS>MOLECULE
TS_4MU_phenylacetate_ZnHis3_OAc_2MeOH_5967.xyz -140.793842488348
 39 41 0 0 0
SMALL
GASTEIGER

@<TRIPOS>ATOM
      1 ZN          0.0000    0.0000    0.0000 Zn      1  UNL1        0.0000
      2 O           1.9956    0.0000    0.0000 O.3     2  UNL2        0.0000
      3 C           3.1580    0.0000    1.2181 C.3     2  UNL2        0.0000
      4 O           4.0865    0.7824    0.8623 O.3     2  UNL2        0.0000
      5 O           2.3925    0.3431    2.3729 O.3     2  UNL2        0.0000
      6 H           2.2948    0.6928   -0.6349 H       2  UNL2        0.0000
      7 C           2.3648    1.5905    2.9151 C.ar    2  UNL2        0.0000
      8 C           3.6250    2.1108    3.2164 C.ar    2  UNL2        0.0000
      9 C           1.2052    2.3326    3.2098 C.ar    2  UNL2        0.0000
     10 C           3.7211    3.3334    3.8649 C.ar    2  UNL2        0.0000
     11 C           1.3285    3.5563    3.8514 C.ar    2  UNL2        0.0000
     12 C           2.5805    4.0813    4.2200 C.ar    2  UNL2        0.0000
     13 H           4.5182    1.5424    2.9903 H       2  UNL2        0.0000
     14 H           0.2332    1.9724    2.9158 H       2  UNL2        0.0000
     15 H           0.4299    4.1213    4.0744 H       2  UNL2        0.0000
     16 C           3.4964   -1.4922    1.3543 C.3     2  UNL2        0.0000
     17 H           3.9720   -1.7763    0.4117 H       2  UNL2        0.0000
     18 H           4.2718   -1.5390    2.1289 H       2  UNL2        0.0000
     19 O           4.9820    3.7654    4.1701 O.2     2  UNL2        0.0000
     20 C           5.2082    4.9431    4.8712 C.ar    2  UNL2        0.0000
     21 O           6.3682    5.2304    5.1048 O.2     2  UNL2        0.0000
     22 C           4.0393    5.7037    5.2563 C.ar    2  UNL2        0.0000
     23 H           4.2354    6.6156    5.8083 H       2  UNL2        0.0000
     24 C           2.7706    5.3171    4.9490 C.ar    2  UNL2        0.0000
     25 C           1.5824    6.1341    5.3672 C.3     2  UNL2        0.0000
     26 H           0.9159    5.5473    6.0101 H       2  UNL2        0.0000
     27 H           1.8929    7.0278    5.9126 H       2  UNL2        0.0000
     28 H           0.9965    6.4451    4.4944 H       2  UNL2        0.0000
     29 C           2.3653   -2.4400    1.6779 C.ar    2  UNL2        0.0000
     30 C           1.8815   -2.5936    2.9869 C.ar    2  UNL2        0.0000
     31 C           1.7933   -3.2153    0.6624 C.ar    2  UNL2        0.0000
     32 C           0.8451   -3.4859    3.2629 C.ar    2  UNL2        0.0000
     33 C           0.7596   -4.1137    0.9359 C.ar    2  UNL2        0.0000
     34 C           0.2755   -4.2467    2.2366 C.ar    2  UNL2        0.0000
     35 H           2.3224   -2.0125    3.7890 H       2  UNL2        0.0000
     36 H           2.1604   -3.1158   -0.3557 H       2  UNL2        0.0000
     37 H           0.4892   -3.5986    4.2838 H       2  UNL2        0.0000
     38 H           0.3293   -4.7002    0.1303 H       2  UNL2        0.0000
     39 H          -0.5308   -4.9413    2.4531 H       2  UNL2        0.0000
@<TRIPOS>BOND
     1     6     2    1
     2    36    31    1
     3     2     3    1
     4    38    33    1
     5    17    16    1
     6    31    33   ar
     7    31    29   ar
     8     4     3    1
     9    33    34   ar
    10     3    16    1
    11     3     5    1
    12    16    29    1
    13    16    18    1
    14    29    30   ar
    15    34    39    1
    16    34    32   ar
    17     5     7    1
    18     7     9   ar
    19     7     8   ar
    20    14     9    1
    21    30    32   ar
    22    30    35    1
    23    13     8    1
    24     9    11   ar
    25     8    10   ar
    26    32    37    1
    27    11    15    1
    28    11    12   ar
    29    10    19   ar
    30    10    12   ar
    31    19    20   ar
    32    12    24   ar
    33    28    25    1
    34    20    21    2
    35    20    22   ar
    36    24    22   ar
    37    24    25    1
    38    22    23    1
    39    25    27    1
    40    25    26    1
    41     1     2    1 
@<TRIPOS>MOLECULE
TS_4MU_phenylacetate_ZnHis3_OAc_2MeOH_5460.xyz -140.793208213195
 39 41 0 0 0
SMALL
GASTEIGER

@<TRIPOS>ATOM
      1 ZN          0.0000    0.0000    0.0000 Zn      1  UNL1        0.0000
      2 O           1.9956    0.0000    0.0000 O.3     2  UNL2        0.0000
      3 C           3.1580    0.0000    1.2181 C.3     2  UNL2        0.0000
      4 O           4.0865    0.7824    0.8623 O.3     2  UNL2        0.0000
      5 O           2.3925    0.3431    2.3729 O.3     2  UNL2        0.0000
      6 H           2.2948    0.6928   -0.6349 H       2  UNL2        0.0000
      7 C           2.3339    1.5992    2.8920 C.ar    2  UNL2        0.0000
      8 C           1.8536    2.5631    2.0032 C.ar    2  UNL2        0.0000
      9 C           2.7411    1.9728    4.1869 C.ar    2  UNL2        0.0000
     10 C           1.8415    3.8969    2.3844 C.ar    2  UNL2        0.0000
     11 C           2.7117    3.3122    4.5466 C.ar    2  UNL2        0.0000
     12 C           2.2879    4.3139    3.6546 C.ar    2  UNL2        0.0000
     13 H           1.5394    2.2783    1.0071 H       2  UNL2        0.0000
     14 H           3.0443    1.2276    4.9036 H       2  UNL2        0.0000
     15 H           3.0270    3.5909    5.5463 H       2  UNL2        0.0000
     16 C           3.4964   -1.4922    1.3543 C.3     2  UNL2        0.0000
     17 H           4.2560   -1.6951    0.5945 H       2  UNL2        0.0000
     18 H           3.9894   -1.5847    2.3299 H       2  UNL2        0.0000
     19 O           1.4006    4.7946    1.4520 O.2     2  UNL2        0.0000
     20 C           1.3969    6.1631    1.6903 C.ar    2  UNL2        0.0000
     21 O           0.9979    6.8776    0.7886 O.2     2  UNL2        0.0000
     22 C           1.8740    6.5976    2.9852 C.ar    2  UNL2        0.0000
     23 H           1.8701    7.6688    3.1500 H       2  UNL2        0.0000
     24 C           2.2978    5.7316    3.9463 C.ar    2  UNL2        0.0000
     25 C           2.7866    6.2218    5.2786 C.3     2  UNL2        0.0000
     26 H           3.8233    5.9090    5.4498 H       2  UNL2        0.0000
     27 H           2.7383    7.3112    5.3377 H       2  UNL2        0.0000
     28 H           2.1848    5.8021    6.0931 H       2  UNL2        0.0000
     29 C           2.3603   -2.4813    1.2380 C.ar    2  UNL2        0.0000
     30 C           1.1668   -2.3241    1.9604 C.ar    2  UNL2        0.0000
     31 C           2.4965   -3.6058    0.4155 C.ar    2  UNL2        0.0000
     32 C           0.1374   -3.2588    1.8468 C.ar    2  UNL2        0.0000
     33 C           1.4704   -4.5466    0.3037 C.ar    2  UNL2        0.0000
     34 C           0.2828   -4.3725    1.0130 C.ar    2  UNL2        0.0000
     35 H           1.0492   -1.4671    2.6141 H       2  UNL2        0.0000
     36 H           3.4166   -3.7484   -0.1451 H       2  UNL2        0.0000
     37 H          -0.7763   -3.1259    2.4205 H       2  UNL2        0.0000
     38 H           1.5984   -5.4078   -0.3443 H       2  UNL2        0.0000
     39 H          -0.5193   -5.0995    0.9261 H       2  UNL2        0.0000
@<TRIPOS>BOND
     1     6     2    1
     2    38    33    1
     3    36    31    1
     4     2     3    1
     5    33    31   ar
     6    33    34   ar
     7    31    29   ar
     8    17    16    1
     9    21    20    2
    10     4     3    1
    11    39    34    1
    12    13     8    1
    13    34    32   ar
    14     3    16    1
    15     3     5    1
    16    29    16    1
    17    29    30   ar
    18    16    18    1
    19    19    20   ar
    20    19    10   ar
    21    20    22   ar
    22    32    30   ar
    23    32    37    1
    24    30    35    1
    25     8    10   ar
    26     8     7   ar
    27     5     7    1
    28    10    12   ar
    29     7     9   ar
    30    22    23    1
    31    22    24   ar
    32    12    24   ar
    33    12    11   ar
    34    24    25    1
    35     9    11   ar
    36     9    14    1
    37    11    15    1
    38    25    27    1
    39    25    26    1
    40    25    28    1
    41     1     2    1 
@<TRIPOS>MOLECULE
TS_4MU_phenylacetate_ZnHis3_OAc_2MeOH_645.xyz -140.792932004228
 39 41 0 0 0
SMALL
GASTEIGER

@<TRIPOS>ATOM
      1 ZN          0.0000    0.0000    0.0000 Zn      1  UNL1        0.0000
      2 O           1.9956    0.0000    0.0000 O.3     2  UNL2        0.0000
      3 C           3.1580    0.0000    1.2181 C.3     2  UNL2        0.0000
      4 O           4.0865    0.7824    0.8623 O.3     2  UNL2        0.0000
      5 O           2.3925    0.3431    2.3729 O.3     2  UNL2        0.0000
      6 H           2.2948    0.6928   -0.6349 H       2  UNL2        0.0000
      7 C           1.6801    1.4962    2.4892 C.ar    2  UNL2        0.0000
      8 C           0.8330    1.5351    3.5985 C.ar    2  UNL2        0.0000
      9 C           1.7144    2.5776    1.5884 C.ar    2  UNL2        0.0000
     10 C          -0.0182    2.6171    3.7695 C.ar    2  UNL2        0.0000
     11 C           0.8591    3.6517    1.7859 C.ar    2  UNL2        0.0000
     12 C          -0.0467    3.6946    2.8613 C.ar    2  UNL2        0.0000
     13 H           0.8050    0.7050    4.2930 H       2  UNL2        0.0000
     14 H           2.4160    2.5891    0.7707 H       2  UNL2        0.0000
     15 H           0.8925    4.4806    1.0871 H       2  UNL2        0.0000
     16 C           3.4964   -1.4922    1.3543 C.3     2  UNL2        0.0000
     17 H           4.1292   -1.7329    0.4958 H       2  UNL2        0.0000
     18 H           4.1311   -1.5602    2.2465 H       2  UNL2        0.0000
     19 O          -0.8527    2.5728    4.8516 O.2     2  UNL2        0.0000
     20 C          -1.7925    3.5654    5.0990 C.ar    2  UNL2        0.0000
     21 O          -2.4970    3.4236    6.0820 O.2     2  UNL2        0.0000
     22 C          -1.8400    4.6631    4.1578 C.ar    2  UNL2        0.0000
     23 H          -2.5839    5.4240    4.3634 H       2  UNL2        0.0000
     24 C          -1.0090    4.7528    3.0831 C.ar    2  UNL2        0.0000
     25 C          -1.0896    5.9084    2.1280 C.3     2  UNL2        0.0000
     26 H          -1.3112    5.5575    1.1133 H       2  UNL2        0.0000
     27 H          -1.8675    6.6131    2.4293 H       2  UNL2        0.0000
     28 H          -0.1340    6.4436    2.0822 H       2  UNL2        0.0000
     29 C           2.3448   -2.4657    1.4469 C.ar    2  UNL2        0.0000
     30 C           1.7918   -3.0670    0.3050 C.ar    2  UNL2        0.0000
     31 C           1.7827   -2.7642    2.6938 C.ar    2  UNL2        0.0000
     32 C           0.7192   -3.9522    0.4151 C.ar    2  UNL2        0.0000
     33 C           0.7052   -3.6454    2.8072 C.ar    2  UNL2        0.0000
     34 C           0.1741   -4.2497    1.6685 C.ar    2  UNL2        0.0000
     35 H           2.2044   -2.8362   -0.6707 H       2  UNL2        0.0000
     36 H           2.1924   -2.3019    3.5879 H       2  UNL2        0.0000
     37 H           0.2979   -4.4016   -0.4805 H       2  UNL2        0.0000
     38 H           0.2900   -3.8643    3.7859 H       2  UNL2        0.0000
     39 H          -0.6612   -4.9386    1.7525 H       2  UNL2        0.0000
@<TRIPOS>BOND
     1    35    30    1
     2     6     2    1
     3    37    32    1
     4     2     3    1
     5    30    32   ar
     6    30    29   ar
     7    32    34   ar
     8    17    16    1
     9    14     9    1
    10     4     3    1
    11    15    11    1
    12    26    25    1
    13     3    16    1
    14     3     5    1
    15    16    29    1
    16    16    18    1
    17    29    31   ar
    18     9    11   ar
    19     9     7   ar
    20    34    39    1
    21    34    33   ar
    22    11    12   ar
    23    28    25    1
    24    25    27    1
    25    25    24    1
    26     5     7    1
    27     7     8   ar
    28    31    33   ar
    29    31    36    1
    30    33    38    1
    31    12    24   ar
    32    12    10   ar
    33    24    22   ar
    34     8    10   ar
    35     8    13    1
    36    10    19   ar
    37    22    23    1
    38    22    20   ar
    39    19    20   ar
    40    20    21    2
    41     1     2    1 
@<TRIPOS>MOLECULE
TS_4MU_phenylacetate_ZnHis3_OAc_2MeOH_1159.xyz -140.792898032294
 39 41 0 0 0
SMALL
GASTEIGER

@<TRIPOS>ATOM
      1 ZN          0.0000    0.0000    0.0000 Zn      1  UNL1        0.0000
      2 O           1.9956    0.0000    0.0000 O.3     2  UNL2        0.0000
      3 C           3.1580    0.0000    1.2181 C.3     2  UNL2        0.0000
      4 O           4.0865    0.7824    0.8623 O.3     2  UNL2        0.0000
      5 O           2.3925    0.3431    2.3729 O.3     2  UNL2        0.0000
      6 H           2.2948    0.6928   -0.6349 H       2  UNL2        0.0000
      7 C           1.9414    1.6002    2.6316 C.ar    2  UNL2        0.0000
      8 C           0.9686    1.6638    3.6311 C.ar    2  UNL2        0.0000
      9 C           2.3457    2.7718    1.9637 C.ar    2  UNL2        0.0000
     10 C           0.3601    2.8779    3.9147 C.ar    2  UNL2        0.0000
     11 C           1.7275    3.9750    2.2712 C.ar    2  UNL2        0.0000
     12 C           0.7039    4.0621    3.2321 C.ar    2  UNL2        0.0000
     13 H           0.6563    0.7645    4.1466 H       2  UNL2        0.0000
     14 H           3.1461    2.7446    1.2428 H       2  UNL2        0.0000
     15 H           2.0454    4.8725    1.7519 H       2  UNL2        0.0000
     16 C           3.4964   -1.4922    1.3543 C.3     2  UNL2        0.0000
     17 H           3.8715   -1.8024    0.3752 H       2  UNL2        0.0000
     18 H           4.3461   -1.5296    2.0471 H       2  UNL2        0.0000
     19 O          -0.6150    2.8632    4.8731 O.2     2  UNL2        0.0000
     20 C          -1.3399    4.0008    5.2047 C.ar    2  UNL2        0.0000
     21 O          -2.1962    3.8774    6.0615 O.2     2  UNL2        0.0000
     22 C          -1.0050    5.2144    4.4917 C.ar    2  UNL2        0.0000
     23 H          -1.5857    6.0896    4.7591 H       2  UNL2        0.0000
     24 C          -0.0246    5.2721    3.5489 C.ar    2  UNL2        0.0000
     25 C           0.2932    6.5513    2.8300 C.3     2  UNL2        0.0000
     26 H           0.1531    6.4333    1.7491 H       2  UNL2        0.0000
     27 H          -0.3469    7.3655    3.1763 H       2  UNL2        0.0000
     28 H           1.3389    6.8388    2.9897 H       2  UNL2        0.0000
     29 C           2.3964   -2.4205    1.8132 C.ar    2  UNL2        0.0000
     30 C           2.2466   -2.7788    3.1624 C.ar    2  UNL2        0.0000
     31 C           1.5129   -2.9709    0.8771 C.ar    2  UNL2        0.0000
     32 C           1.2312   -3.6492    3.5595 C.ar    2  UNL2        0.0000
     33 C           0.4988   -3.8471    1.2702 C.ar    2  UNL2        0.0000
     34 C           0.3487   -4.1835    2.6148 C.ar    2  UNL2        0.0000
     35 H           2.9309   -2.3742    3.8996 H       2  UNL2        0.0000
     36 H           1.6187   -2.7114   -0.1729 H       2  UNL2        0.0000
     37 H           1.1356   -3.9227    4.6072 H       2  UNL2        0.0000
     38 H          -0.1765   -4.2569    0.5259 H       2  UNL2        0.0000
     39 H          -0.4409   -4.8614    2.9255 H       2  UNL2        0.0000
@<TRIPOS>BOND
     1     6     2    1
     2    36    31    1
     3     2     3    1
     4    17    16    1
     5    38    33    1
     6     4     3    1
     7    31    33   ar
     8    31    29   ar
     9     3    16    1
    10     3     5    1
    11    14     9    1
    12    33    34   ar
    13    16    29    1
    14    16    18    1
    15    26    25    1
    16    15    11    1
    17    29    30   ar
    18     9    11   ar
    19     9     7   ar
    20    11    12   ar
    21     5     7    1
    22    34    39    1
    23    34    32   ar
    24     7     8   ar
    25    25    28    1
    26    25    27    1
    27    25    24    1
    28    30    32   ar
    29    30    35    1
    30    12    24   ar
    31    12    10   ar
    32    24    22   ar
    33    32    37    1
    34     8    10   ar
    35     8    13    1
    36    10    19   ar
    37    22    23    1
    38    22    20   ar
    39    19    20   ar
    40    20    21    2
    41     1     2    1 
@<TRIPOS>MOLECULE
TS_4MU_phenylacetate_ZnHis3_OAc_2MeOH_2051.xyz -140.79214556192
 39 41 0 0 0
SMALL
GASTEIGER

@<TRIPOS>ATOM
      1 ZN          0.0000    0.0000    0.0000 Zn      1  UNL1        0.0000
      2 O           1.9956    0.0000    0.0000 O.3     2  UNL2        0.0000
      3 C           3.1580    0.0000    1.2181 C.3     2  UNL2        0.0000
      4 O           4.0865    0.7824    0.8623 O.3     2  UNL2        0.0000
      5 O           2.3925    0.3431    2.3729 O.3     2  UNL2        0.0000
      6 H           2.2948    0.6928   -0.6349 H       2  UNL2        0.0000
      7 C           1.9581    1.6040    2.6415 C.ar    2  UNL2        0.0000
      8 C           1.9248    2.4463    1.5284 C.ar    2  UNL2        0.0000
      9 C           1.5961    2.0954    3.9102 C.ar    2  UNL2        0.0000
     10 C           1.5946    3.7835    1.6942 C.ar    2  UNL2        0.0000
     11 C           1.2619    3.4346    4.0483 C.ar    2  UNL2        0.0000
     12 C           1.2748    4.3219    2.9568 C.ar    2  UNL2        0.0000
     13 H           2.2023    2.0708    0.5516 H       2  UNL2        0.0000
     14 H           1.5486    1.4363    4.7613 H       2  UNL2        0.0000
     15 H           0.9841    3.8045    5.0294 H       2  UNL2        0.0000
     16 C           3.4964   -1.4922    1.3543 C.3     2  UNL2        0.0000
     17 H           4.2946   -1.6830    0.6319 H       2  UNL2        0.0000
     18 H           3.9396   -1.5939    2.3526 H       2  UNL2        0.0000
     19 O           1.6234    4.5634    0.5715 O.2     2  UNL2        0.0000
     20 C           1.3716    5.9288    0.6159 C.ar    2  UNL2        0.0000
     21 O           1.4367    6.5350   -0.4382 O.2     2  UNL2        0.0000
     22 C           1.0633    6.4900    1.9133 C.ar    2  UNL2        0.0000
     23 H           0.8767    7.5575    1.9290 H       2  UNL2        0.0000
     24 C           1.0022    5.7404    3.0481 C.ar    2  UNL2        0.0000
     25 C           0.6794    6.3603    4.3769 C.3     2  UNL2        0.0000
     26 H           1.4991    6.2020    5.0875 H       2  UNL2        0.0000
     27 H           0.5083    7.4343    4.2778 H       2  UNL2        0.0000
     28 H          -0.2171    5.9039    4.8125 H       2  UNL2        0.0000
     29 C           2.3726   -2.4848    1.1690 C.ar    2  UNL2        0.0000
     30 C           1.3950   -2.6871    2.1563 C.ar    2  UNL2        0.0000
     31 C           2.3066   -3.2531    0.0007 C.ar    2  UNL2        0.0000
     32 C           0.3749   -3.6198    1.9676 C.ar    2  UNL2        0.0000
     33 C           1.2901   -4.1918   -0.1891 C.ar    2  UNL2        0.0000
     34 C           0.3149   -4.3733    0.7906 C.ar    2  UNL2        0.0000
     35 H           1.4386   -2.1118    3.0743 H       2  UNL2        0.0000
     36 H           3.0594   -3.1160   -0.7711 H       2  UNL2        0.0000
     37 H          -0.3684   -3.7697    2.7465 H       2  UNL2        0.0000
     38 H           1.2580   -4.7720   -1.1059 H       2  UNL2        0.0000
     39 H          -0.4795   -5.0994    0.6456 H       2  UNL2        0.0000
@<TRIPOS>BOND
     1    38    33    1
     2    36    31    1
     3     6     2    1
     4    21    20    2
     5    33    31   ar
     6    33    34   ar
     7     2     3    1
     8    31    29   ar
     9    13     8    1
    10    19    20   ar
    11    19    10   ar
    12    20    22   ar
    13    17    16    1
    14    39    34    1
    15    34    32   ar
    16     4     3    1
    17    29    16    1
    18    29    30   ar
    19     3    16    1
    20     3     5    1
    21    16    18    1
    22     8    10   ar
    23     8     7   ar
    24    10    12   ar
    25    22    23    1
    26    22    24   ar
    27    32    30   ar
    28    32    37    1
    29    30    35    1
    30     5     7    1
    31     7     9   ar
    32    12    24   ar
    33    12    11   ar
    34    24    25    1
    35     9    11   ar
    36     9    14    1
    37    11    15    1
    38    27    25    1
    39    25    28    1
    40    25    26    1
    41     1     2    1 
@<TRIPOS>MOLECULE
TS_4MU_phenylacetate_ZnHis3_OAc_2MeOH_944.xyz -140.792026723857
 39 41 0 0 0
SMALL
GASTEIGER

@<TRIPOS>ATOM
      1 ZN          0.0000    0.0000    0.0000 Zn      1  UNL1        0.0000
      2 O           1.9956    0.0000    0.0000 O.3     2  UNL2        0.0000
      3 C           3.1580    0.0000    1.2181 C.3     2  UNL2        0.0000
      4 O           4.0865    0.7824    0.8623 O.3     2  UNL2        0.0000
      5 O           2.3925    0.3431    2.3729 O.3     2  UNL2        0.0000
      6 H           2.2948    0.6928   -0.6349 H       2  UNL2        0.0000
      7 C           2.5393    1.5114    3.0543 C.ar    2  UNL2        0.0000
      8 C           1.3779    2.2836    3.1214 C.ar    2  UNL2        0.0000
      9 C           3.7344    1.9813    3.6314 C.ar    2  UNL2        0.0000
     10 C           1.4278    3.5417    3.7039 C.ar    2  UNL2        0.0000
     11 C           3.7563    3.2395    4.2152 C.ar    2  UNL2        0.0000
     12 C           2.6180    4.0654    4.2477 C.ar    2  UNL2        0.0000
     13 H           0.4575    1.9243    2.6788 H       2  UNL2        0.0000
     14 H           4.6163    1.3625    3.6486 H       2  UNL2        0.0000
     15 H           4.6811    3.5934    4.6575 H       2  UNL2        0.0000
     16 C           3.4964   -1.4922    1.3543 C.3     2  UNL2        0.0000
     17 H           4.0367   -1.7588    0.4419 H       2  UNL2        0.0000
     18 H           4.2179   -1.5467    2.1789 H       2  UNL2        0.0000
     19 O           0.2668    4.2639    3.6981 O.2     2  UNL2        0.0000
     20 C           0.2017    5.5590    4.1961 C.ar    2  UNL2        0.0000
     21 O          -0.8769    6.1203    4.1306 O.2     2  UNL2        0.0000
     22 C           1.4261    6.1087    4.7364 C.ar    2  UNL2        0.0000
     23 H           1.3574    7.1224    5.1137 H       2  UNL2        0.0000
     24 C           2.5942    5.4109    4.7806 C.ar    2  UNL2        0.0000
     25 C           3.8448    6.0168    5.3490 C.3     2  UNL2        0.0000
     26 H           4.6393    6.0451    4.5941 H       2  UNL2        0.0000
     27 H           3.6631    7.0348    5.7002 H       2  UNL2        0.0000
     28 H           4.2198    5.4207    6.1891 H       2  UNL2        0.0000
     29 C           2.3524   -2.4513    1.5861 C.ar    2  UNL2        0.0000
     30 C           2.0947   -3.5192    0.7118 C.ar    2  UNL2        0.0000
     31 C           1.4987   -2.2669    2.6801 C.ar    2  UNL2        0.0000
     32 C           1.0233   -4.3833    0.9396 C.ar    2  UNL2        0.0000
     33 C           0.4218   -3.1264    2.9080 C.ar    2  UNL2        0.0000
     34 C           0.1845   -4.1936    2.0428 C.ar    2  UNL2        0.0000
     35 H           2.7362   -3.6688   -0.1493 H       2  UNL2        0.0000
     36 H           1.6778   -1.4406    3.3631 H       2  UNL2        0.0000
     37 H           0.8333   -5.1995    0.2473 H       2  UNL2        0.0000
     38 H          -0.2230   -2.9651    3.7662 H       2  UNL2        0.0000
     39 H          -0.6495   -4.8667    2.2184 H       2  UNL2        0.0000
@<TRIPOS>BOND
     1     6     2    1
     2    35    30    1
     3     2     3    1
     4    37    32    1
     5    17    16    1
     6    30    32   ar
     7    30    29   ar
     8     4     3    1
     9    32    34   ar
    10     3    16    1
    11     3     5    1
    12    16    29    1
    13    16    18    1
    14    29    31   ar
    15    34    39    1
    16    34    33   ar
    17     5     7    1
    18    13     8    1
    19    31    33   ar
    20    31    36    1
    21    33    38    1
    22     7     8   ar
    23     7     9   ar
    24     8    10   ar
    25     9    14    1
    26     9    11   ar
    27    19    10   ar
    28    19    20   ar
    29    10    12   ar
    30    21    20    2
    31    20    22   ar
    32    11    12   ar
    33    11    15    1
    34    12    24   ar
    35    26    25    1
    36    22    24   ar
    37    22    23    1
    38    24    25    1
    39    25    27    1
    40    25    28    1
    41     1     2    1 

